
64
N 7.78745397661 -0.741494975258 -0.326867971053
C 7.46726322275 0.504576295264 0.372673525748
C 5.97898000069 0.73079224296 0.355054754298
O 5.38420584614 0.846374553437 -0.751253637516
C 8.2036235739 1.69534816587 -0.25400828033
N 5.24351796816 0.802410932324 1.58829269842
C 3.79378820735 1.02129141099 1.68059936596
C 3.04249361911 0.0478471410984 0.790763648552
O 3.31717058889 -1.17842638131 0.892838360916
C 3.46471622423 2.51033765836 1.47522199538
O 3.7943486603 2.9304108513 0.179517021167
N 2.04044341134 0.472540493674 -0.150024158268
C 1.49037308051 -0.424499277943 -1.16534019232
C 0.388947872748 -1.26750885134 -0.594714483241
O 0.672323282779 -2.1684182834 0.238450443814
N -0.968775368583 -1.06488415481 -1.02537985718
C -2.11619906246 -1.90290003494 -0.6488922079
C -2.47617496356 -1.70555675906 0.811351297369
O -1.64380462699 -2.05618230501 1.692225073
C -1.86238701624 -3.38761619084 -0.979170981667
C -3.14241893655 -4.1724747784 -0.949912947637
O -3.92010985886 -4.1350239363 -1.94265692638
N -3.49148680693 -4.95398972548 0.192403792181
N -3.75263592423 -1.1933576136 1.24912678429
C -4.68873418727 -0.362501057022 0.478642668267
C -5.38685994918 -1.18934004094 -0.571514276823
O -5.35410767488 -0.867198484666 -1.79049771663
C -3.98663072441 0.91442488532 -0.0497489038044
C -4.95219033986 2.02629520552 -0.535929142847
C -5.75417972452 2.6475339833 0.621159373755
C -4.15726727245 3.12263950101 -1.26007008044
O -6.08459822904 -2.3273461922 -0.181640873046
H 7.60973424977 -0.622215559139 -1.35183234705
H 8.80773625052 -0.939443337467 -0.211725378343
H 7.81064048636 0.410964039545 1.42614117723
H 9.3002869006 1.52693696267 -0.208215308055
H 7.96744005633 2.62665055884 0.303772105604
H 7.90901657149 1.82650426716 -1.31838932196
H 5.75882671249 0.637489661685 2.48255924403
H 3.48414209396 0.782573652382 2.72248523362
H 4.04350986731 3.11011217482 2.21326754159
H 2.38351469827 2.68940730462 1.67272745755
H 3.54058141448 3.88844156156 0.126319375592
H 1.72605744989 1.46646767796 -0.180635344488
H 1.09937294264 0.184924211311 -2.00807691301
H 2.29088979353 -1.07326391819 -1.58199118209
H -1.15300341448 -0.286785597518 -1.69901733468
H -2.95894922499 -1.58881567681 -1.28760272702
H -1.42092947945 -3.47177172299 -1.99554206077
H -1.13868757405 -3.83584207315 -0.266597893805
H -2.86508620834 -4.99040004423 1.02757556213
H -4.41292828785 -5.44087959404 0.235337349664
H -3.97386185424 -1.31704067361 2.26388048663
H -5.48266382776 -0.0439885503144 1.18467630829
H -3.34341515353 1.32928249447 0.757771880224
H -3.30997085408 0.640454910584 -0.883452640655
H -5.67235447107 1.60149682349 -1.26859472112
H -6.3087765186 3.54158896459 0.267225685056
H -5.08064467355 2.95612253447 1.45038580538
H -6.50826732217 1.93174064208 1.00861730573
H -3.43640454833 3.60564696143 -0.56501764843
H -4.84608617092 3.8974054115 -1.66157317946
H -3.59515082175 2.69207501284 -2.11690085521
H -6.55565795198 -2.90994335846 -0.864199394429

64
N 7.37396002771 1.54709074224 -1.66844852294
C 6.94057087353 1.53807196588 -0.269122068188
C 5.49860894081 1.99967530116 -0.150019802895
O 5.20965006669 3.16641943099 -0.534135237365
C 7.86132090921 2.43096211158 0.5684948483
N 4.44345506695 1.16857909595 0.3763754287
C 4.62831929617 -0.160920618129 0.977115801185
C 3.30319868679 -0.883177593848 1.05691706204
O 2.34877551118 -0.37373182658 1.70317299515
C 5.24339012584 -0.0327705943442 2.37839152532
O 5.4462288443 -1.30567997682 2.93236901657
N 3.13466492663 -2.1602913764 0.422357900581
C 1.87203394772 -2.89168875429 0.47281784056
C 0.885954812882 -2.28631015716 -0.478686400589
O 1.12623370798 -2.31912800159 -1.71696935758
N -0.31753455151 -1.67454899525 0.00870876978128
C -1.44395951663 -1.36456481484 -0.881593862707
C -2.3229247007 -0.284898676706 -0.298721790273
O -2.66231232904 -0.338183749375 0.91448949207
C -2.2645046073 -2.63613602393 -1.18291987212
C -2.80002056569 -3.29183901846 0.0617019148518
O -3.96507152923 -3.02320732515 0.459759225244
N -2.00363200678 -4.22591473836 0.79302428096
N -2.81961481751 0.766121867825 -1.14411049133
C -4.092725008 1.46771926854 -0.930636421714
C -3.96281856257 2.45597032195 0.205846114133
O -3.62714293947 3.64002457022 -0.0555422133737
C -5.26268294202 0.455046898152 -0.801755859869
C -6.70214907778 1.02364341427 -0.928110847621
C -7.15827021722 1.79380449432 0.319711309297
C -6.91758012254 1.85645077792 -2.1986473717
O -4.17053769942 2.10227406125 1.53742154306
H 6.68223462026 1.00968463137 -2.24359218846
H 7.3792638576 2.53210026497 -2.02805579394
H 7.06943542271 0.504222765295 0.106998689786
H 7.83295713167 3.47875127078 0.201254980083
H 8.90715868057 2.0621409402 0.51038831712
H 7.53759994718 2.41742836526 1.63153883622
H 3.47640633207 1.56814168993 0.347719932448
H 5.30523074314 -0.762653776116 0.333379407634
H 6.21506668115 0.499812920618 2.31453634818
H 4.56787890311 0.560060550733 3.03452267841
H 5.94794668474 -1.16049854495 3.77577784994
H 3.95269571654 -2.6195839303 -0.0392030501402
H 1.47639619245 -2.89190363301 1.51098760429
H 2.04234478082 -3.94981934496 0.180477138588
H -0.436481088855 -1.57394084618 1.04282359981
H -1.0477145232 -0.992288045096 -1.85143135185
H -1.62784594895 -3.36761603266 -1.7273675686
H -3.11095530993 -2.37704279478 -1.85944807456
H -1.05551097177 -4.50029251464 0.449545107219
H -2.36630014642 -4.64575620243 1.67985118973
H -2.31607592784 0.946016803301 -2.03989558714
H -4.27526605495 2.06159441507 -1.85055228106
H -5.13929205962 -0.298445761843 -1.60896636854
H -5.18200041356 -0.123134905173 0.141561622151
H -7.37492598668 0.13738981044 -1.01083098134
H -6.96492664868 1.19702495976 1.23731640501
H -6.64835893749 2.77930488134 0.403058294883
H -8.25425165851 1.97751471925 0.262490162879
H -8.00443163898 2.02656558346 -2.35907436156
H -6.42299487858 2.84990532444 -2.11413465034
H -6.52001821747 1.31700930508 -3.08700692111
H -4.46814983351 1.17944504982 1.82015250053

64
N 7.66477703338 1.98304780532 0.0322821167426
C 6.79005166499 1.4093017257 1.05666672563
C 6.03534419904 0.214248958867 0.52897651457
O 6.22718000883 -0.910512888651 1.06425983224
C 5.83026233585 2.47514181182 1.59201418432
N 5.09889366634 0.351943174188 -0.554621297758
C 4.31076426995 -0.761578877924 -1.0998354621
C 3.4958193114 -1.40880852835 -0.00513630326462
O 3.70215122136 -2.61131117136 0.325464750499
C 5.21715126423 -1.75554803437 -1.8451198892
O 5.92631598301 -1.08474696273 -2.85230913742
N 2.50619567006 -0.636300428807 0.688577336855
C 1.78218626584 -1.17571438332 1.84032154323
C 0.683441734684 -0.241700182933 2.26375381998
O 0.806795145443 0.389367339619 3.34986561494
N -0.486304190477 -0.0249110830627 1.45754488129
C -0.844245849933 -0.843188994765 0.291617869032
C -1.64635334809 -0.0183999562101 -0.687753035657
O -1.14932776351 0.245971352547 -1.81577349684
C -1.61864733339 -2.09678178896 0.741813336354
C -1.95758751911 -2.99179952472 -0.416308888764
O -1.03199300051 -3.54638703803 -1.07035416734
N -3.31846902315 -3.21578052012 -0.785536980648
N -2.95849662314 0.460582671905 -0.345469897063
C -3.8281624974 1.14929682764 -1.30717713098
C -3.83243490147 2.63830242475 -1.0742216237
O -4.07093898672 3.41116473396 -2.03979679386
C -5.24785220626 0.540671116604 -1.30318739267
C -6.07851981638 0.799881052289 -0.0128540490905
C -6.9058598967 -0.439762415276 0.358836231278
C -7.01053246178 2.00958867318 -0.181676845924
O -3.58969104342 3.18752772904 0.18574749298
H 7.10869707243 2.23856565194 -0.812533018742
H 8.35946910114 1.26094772791 -0.256795762525
H 7.42549960953 1.08207651704 1.90989214364
H 5.16151350031 2.04023573229 2.36617409235
H 6.41284861888 3.29987159085 2.05786554216
H 5.20905856952 2.90292142799 0.776310760944
H 4.92626539511 1.30287698105 -0.952680655221
H 3.59105521385 -0.351405742707 -1.84485090734
H 5.93469906206 -2.23715504788 -1.14052191633
H 4.58450341159 -2.55198114912 -2.30471289343
H 6.45974698952 -1.78237304127 -3.31951550826
H 2.30023826797 0.331082550018 0.34709255882
H 2.50162353832 -1.31757565212 2.67783095261
H 1.35374072185 -2.16896148668 1.5936345686
H -1.16581515781 0.698006607425 1.79007929444
H 0.0827807700836 -1.17101954236 -0.227652176807
H -2.54429647456 -1.80096004635 1.27898781634
H -1.00144423278 -2.67730674738 1.45881136192
H -4.09561925371 -2.73231991476 -0.281466248706
H -3.55100634113 -3.84131011158 -1.58255283418
H -3.30005855094 0.302573020469 0.629005187146
H -3.43085226773 0.986566578749 -2.33369368795
H -5.12799228405 -0.550305744694 -1.46942366528
H -5.80186335701 0.911300546804 -2.19144349392
H -5.40973437531 1.01154921524 0.846297750828
H -7.50411406025 -0.250766301338 1.27750706467
H -7.59676912804 -0.711761286613 -0.468959888151
H -6.23059191195 -1.30098789764 0.561233660308
H -7.71401071204 1.84942224266 -1.02670989557
H -7.60045426415 2.17132692135 0.746044158615
H -6.42511933818 2.93370704281 -0.37098585364
H -3.41391144545 2.62035474004 1.00119806881

64
N 7.42171688892 -0.495056211133 -0.10028991277
C 7.28554226828 0.617216187943 0.842461370882
C 5.84200891137 0.822860511719 1.23546299158
O 5.50498225511 0.646945859055 2.4390029205
C 7.88637155813 1.89553199602 0.254809443046
N 4.85722245262 1.20350745666 0.260137449442
C 3.42521470818 1.24843816875 0.583980426357
C 2.83734143941 -0.141294750356 0.552507565491
O 3.30292832214 -0.998186572924 -0.247226813793
C 2.6779300524 2.19331013696 -0.376043795184
O 2.68189463729 1.69016122391 -1.68873612345
N 1.75820589067 -0.49208878404 1.43620394532
C 1.24344745313 -1.85609303177 1.53070560306
C 0.46936022499 -2.20210738051 0.294719213635
O 0.971823072221 -2.9900274289 -0.548995495602
N -0.813987648987 -1.60136473717 0.0602842313319
C -1.65938798738 -1.95035072279 -1.09056652798
C -2.37254514947 -0.718955101573 -1.61384523121
O -1.82734207241 -0.0595292139015 -2.54248480663
C -2.63431786924 -3.10090987499 -0.755058864952
C -1.91669832795 -4.40806563615 -0.578273670086
O -1.90365177434 -4.96483676957 0.552051648523
N -1.30552690122 -5.06017072045 -1.69769647207
N -3.67038463308 -0.307314246075 -1.15526756376
C -4.04900099657 -0.177444799043 0.257586936743
C -5.45038305899 -0.695859696279 0.507274565831
O -5.9533299579 -0.587374667661 1.6572007589
C -3.85151084911 1.28397490065 0.752408078987
C -4.44368136942 2.40823600581 -0.145685382285
C -4.1168275359 3.78517860523 0.461701280333
C -5.96838792135 2.28142127528 -0.337789421497
O -6.19450580585 -1.33457280379 -0.483482080497
H 6.97636548838 -1.34636830775 0.312658930669
H 6.90707791918 -0.282314513391 -0.981688171806
H 7.86983129142 0.365519939108 1.75546018363
H 8.96952429865 1.74575444764 0.0639987038715
H 7.40041035917 2.15634538784 -0.706516318503
H 7.76985405622 2.73941103254 0.960689725116
H 5.16190906109 1.34038757884 -0.728794807224
H 3.30463909594 1.67062342494 1.60616975696
H 3.14283349372 3.20998392967 -0.325892055342
H 1.62343772954 2.30105702578 -0.0427727823851
H 3.40549740887 2.16012818637 -2.17906234148
H 1.35785497052 0.241678231404 2.0643350679
H 2.09106216794 -2.56572151894 1.66480534452
H 0.574324705106 -1.94948249331 2.41184426781
H -1.15968283851 -0.905948929388 0.760295129671
H -1.01222119012 -2.29806452225 -1.9272945379
H -3.21170191841 -2.88339935261 0.165799114121
H -3.37010259482 -3.21570378091 -1.58253699746
H -0.850155652933 -5.99190341273 -1.57901715264
H -1.38881108319 -4.65677669043 -2.65711955436
H -4.25262064141 0.200179419278 -1.85818886691
H -3.39061801599 -0.807513181137 0.883134513699
H -4.24994333263 1.39276447356 1.78448604158
H -2.7501244769 1.45166077167 0.830508584267
H -3.95733299815 2.36895726114 -1.14670060092
H -4.68272470843 3.9444185387 1.40342355813
H -3.0325385424 3.86766951049 0.687348758163
H -4.38600718692 4.59077134482 -0.253273774016
H -6.21033240208 1.40866173143 -0.976887031767
H -6.37743611982 3.17948183985 -0.853479107084
H -6.4781650245 2.17105897594 0.643426462485
H -5.82862359422 -1.53849552708 -1.40213987719

64
N 8.4662822894 0.440443446327 0.616702632578
C 7.29519925594 -0.41630975211 0.411825820607
C 6.03256137972 0.27736513172 0.866099764708
O 5.87460698082 0.540529811197 2.08958258442
C 7.48613437554 -1.74486948881 1.14988219701
N 5.01638805799 0.638871208744 -0.0867817479248
C 3.9423771321 1.58540476574 0.241366486748
C 2.68539441012 1.28102954199 -0.539775490629
O 2.75082397481 0.688370076068 -1.65368600291
C 4.39782375832 3.02116358891 -0.0620361994745
O 5.54069788122 3.34675088809 0.684561997356
N 1.4205872343 1.75109472408 -0.0497247225548
C 0.243200216931 1.87872115525 -0.909021192806
C -0.354856721175 0.54155446465 -1.23672053942
O -0.813087652035 0.345747333059 -2.39470586873
N -0.463021998629 -0.481601640739 -0.23459227981
C -1.391036163 -1.61053564866 -0.36143777954
C -2.6307513586 -1.32363436992 0.449943476545
O -2.54101746109 -1.20902189937 1.701107324
C -0.705613730762 -2.9106824146 0.100537738373
C -1.59378689805 -4.10998834421 -0.0910271896497
O -2.03103593106 -4.73227390138 0.915131244819
N -1.95031279809 -4.54862552742 -1.40189343927
N -3.90600400951 -1.19462826208 -0.198228620549
C -5.14401976191 -0.941702104622 0.554881482732
C -6.38550703523 -1.34425050123 -0.216398531245
O -6.31433802216 -1.73198501647 -1.4123852727
C -5.21101719862 0.522890582718 1.07407372732
C -5.0608193716 1.68348950151 0.0511283756896
C -3.64574614239 1.80783101161 -0.530563314531
C -6.11747151054 1.66326047419 -1.05982199463
O -7.63031610731 -1.33102046384 0.406881869685
H 8.4653233607 0.801108501034 1.59752139415
H 8.3725989863 1.27731176556 -0.008055540355
H 7.21675110207 -0.64921017749 -0.673016640701
H 8.39188102932 -2.26269844504 0.763071830455
H 6.60468384511 -2.40649798213 0.98506268432
H 7.61030082818 -1.57120071932 2.24185608957
H 5.19393738042 0.418929942909 -1.0949214387
H 3.69762758021 1.50941319787 1.32396046472
H 3.57432472896 3.74281824786 0.160236889929
H 4.64515786479 3.10809871914 -1.14240008202
H 5.22431811051 3.60232878999 1.59320842007
H 1.36917194443 2.14220511448 0.916528180845
H 0.515760129496 2.42143344569 -1.83869775351
H -0.526092640496 2.48054600039 -0.380731981035
H 0.0637586829898 -0.373060928077 0.667273731004
H -1.67476575838 -1.74155332036 -1.42846942304
H -0.416202598955 -2.82318896804 1.1712609952
H 0.229312821019 -3.06572626942 -0.482164223002
H -1.58977589917 -4.05271946049 -2.24681000262
H -2.56670110976 -5.38026585924 -1.53226086024
H -3.94505403336 -1.32522989413 -1.23229151979
H -5.13790775105 -1.60499652539 1.44849320001
H -4.42987466752 0.653846096774 1.85491931028
H -6.1783670193 0.658511769583 1.60956044344
H -5.23593555895 2.61817666438 0.632590710505
H -3.50282841273 2.81095247985 -0.979684327444
H -3.46465315177 1.05951513444 -1.32964858861
H -2.88545503331 1.68187514822 0.268104151824
H -6.10472986325 2.62808039372 -1.61262294598
H -7.13188901162 1.5387617988 -0.626129426505
H -5.92004641293 0.846199072422 -1.7826202138
H -7.72694654738 -1.12715210437 1.3960463686

64
N 7.80459162123 -1.73845091661 0.0733138284851
C 7.88094633276 -0.337356721 0.491161847338
C 6.58660547375 0.382407533503 0.193255170391
O 6.17149010698 0.440559762038 -0.997063814288
C 9.05209494654 0.357287646322 -0.206030982374
N 5.83411810824 0.990024930958 1.25885996282
C 4.4918437454 1.56624006203 1.10506161367
C 3.5182659504 0.511601765085 0.637628649315
O 3.39396732473 0.267910458333 -0.594656405942
C 4.51738211023 2.80493003491 0.190699552729
O 3.31274217978 3.51597029653 0.288154072464
N 2.77127334082 -0.249910185698 1.60006031174
C 1.98667509985 -1.42712497737 1.23052084603
C 0.528847229692 -1.09117638807 1.12575189105
O -0.301552522229 -1.74344158717 1.8112841826
N 0.0823000961516 -0.0860274618776 0.198101756122
C -1.06936139908 -0.249909272953 -0.700426414448
C -2.38063646938 -0.192367916175 0.0518534573691
O -2.70333926257 -1.13782012788 0.82172696419
C -0.939098773235 -1.54850639805 -1.52360888621
C -2.00388644274 -1.64201763356 -2.58111560378
O -2.01497617569 -0.813340451351 -3.5319535453
N -2.98678439414 -2.67783313888 -2.53596127093
N -3.28738644368 0.904748710812 -0.169456831879
C -4.72229897775 0.871801189941 0.146536269322
C -4.93004770869 1.0127035888 1.63148588415
O -5.42557492272 2.07543016745 2.09104287453
C -5.39610222542 -0.399165630637 -0.440117159729
C -6.93010400136 -0.32829363861 -0.650833364998
C -7.71199862783 -0.174341650488 0.661573540405
C -7.346227522 0.748003107134 -1.66820563434
O -4.58109173439 -0.0154028939517 2.50145353085
H 7.6167122069 -1.78834760295 -0.95490130002
H 6.99478156764 -2.18892996091 0.555775824532
H 8.07695677628 -0.312657064428 1.5835799084
H 8.89743330385 0.385438137712 -1.30659860462
H 9.15420160977 1.39632084612 0.17042405704
H 9.99752189304 -0.185117724839 0.00717738591412
H 6.24692926018 0.987332835241 2.21923714284
H 4.15897607179 1.91779552443 2.10692137247
H 4.71560243232 2.52907318929 -0.868222485014
H 5.33912237968 3.4729933368 0.517372761925
H 2.65056550051 3.0382713509 -0.275403846259
H 2.77335389756 0.0468336875794 2.60344878424
H 2.33414030956 -1.84606077448 0.261636078741
H 2.13806981486 -2.21482754814 2.00017909532
H 0.733375393726 0.704438953404 -0.0064780919928
H -1.04481224937 0.599016165648 -1.41952032262
H 0.0569362613012 -1.56961495236 -2.02025951086
H -0.99110766806 -2.43536137795 -0.851521205646
H -3.72196223445 -2.73627154215 -3.27416917248
H -3.00257711084 -3.36874497637 -1.75472130614
H -2.94199514018 1.72069587325 -0.723891806438
H -5.17184438592 1.76088706018 -0.341964703368
H -4.93280024512 -0.617591897744 -1.42778958001
H -5.17434997661 -1.2755116984 0.204466279802
H -7.22536835577 -1.31171251356 -1.08474548573
H -8.78898439482 -0.380241687847 0.486689134141
H -7.62122594554 0.85707654057 1.06146304015
H -7.34253780172 -0.894672695236 1.42033020193
H -8.41459565931 0.607905403733 -1.94793720269
H -7.23582498341 1.77068289511 -1.24563169546
H -6.73266741795 0.666908162388 -2.59030771674
H -4.74470117354 0.0668617915213 3.49934311109

64
N 9.06143626902 -1.76768003598 0.315287303357
C 8.57175885738 -0.4092134737 0.556260177102
C 7.08448416547 -0.317017242817 0.311507550135
O 6.62759153618 -0.611438162138 -0.825960189855
C 9.32387362974 0.583981156755 -0.330422225186
N 6.20062153682 0.0956131257678 1.37058315087
C 4.77092627348 0.410555668538 1.20678197915
C 3.95640211964 -0.821684259907 0.849111515689
O 4.55254932597 -1.90305008192 0.59434953571
C 4.57526379888 1.58410024429 0.220011631157
O 4.65375061593 1.16957257027 -1.11813980795
N 2.51837929066 -0.808963789868 0.78214910071
C 1.64472030126 0.177132187735 1.41969077281
C 0.716765852203 0.768898646307 0.401260699433
O 1.19730791067 1.43825267152 -0.552153181332
N -0.703241775679 0.589001179536 0.513283662057
C -1.6414224573 1.15542223533 -0.464035498501
C -3.05178647001 1.18437902391 0.0808956270953
O -3.6709729071 2.28314783423 0.118177917877
C -1.57561157172 0.421327916074 -1.82274005728
C -1.93675296095 -1.03575418947 -1.74902164673
O -3.02280731034 -1.43567524609 -2.24913924761
N -1.05108372951 -1.97929092086 -1.14735353182
N -3.69985921274 -0.0166634811671 0.531501002878
C -5.15090389779 -0.0821003685001 0.746425972299
C -5.49633235285 -1.33075849335 1.52246547562
O -6.04631088477 -1.23489327152 2.65118280772
C -5.89677541912 -0.0435805085964 -0.614931552964
C -7.24905092233 0.708112973071 -0.56128593865
C -7.78856213883 0.927855640149 -1.98217970712
C -8.29288789639 -0.0371376844244 0.28141389153
O -5.19417596203 -2.59513114034 1.02002181046
H 8.59020731356 -2.41579661179 0.989390116797
H 8.79682541295 -2.07316579514 -0.650230893096
H 8.79058713912 -0.143614791878 1.61369897053
H 9.13147919143 0.380937192245 -1.40412409994
H 8.99321058302 1.62048075204 -0.102143296133
H 10.4162820181 0.51331382147 -0.140218488444
H 6.61094068813 0.235304485454 2.32183417722
H 4.41228426265 0.76076813552 2.19832378916
H 3.60634583843 2.09750952278 0.408080361596
H 5.36438496101 2.34535317758 0.399942806535
H 3.75202548121 0.841851137872 -1.37320613101
H 2.05493888009 -1.6514310893 0.372672531497
H 1.06570868242 -0.329819038183 2.21994929688
H 2.21406703704 0.992623432887 1.90320400072
H -1.07168930748 0.103238011279 1.3614408433
H -1.34210376883 2.21069021105 -0.653223810097
H -2.26814517284 0.931107333121 -2.52906336155
H -0.557703343035 0.513142657126 -2.25707515744
H -0.104178304281 -1.68993036896 -0.820740835132
H -1.33832921319 -2.97831794778 -1.04332104159
H -3.11015989121 -0.857310041652 0.731343489556
H -5.44617828601 0.797433043048 1.36085020534
H -6.04850472829 -1.07003994873 -1.01803922092
H -5.25394391087 0.479209769044 -1.35765801965
H -7.08495064547 1.71276880001 -0.109983656928
H -7.0574122173 1.5071492996 -2.5868714917
H -8.73664927031 1.50794453482 -1.94816704855
H -7.98208059595 -0.0460644119704 -2.48476601773
H -9.2726940481 0.48549317052 0.229787926426
H -7.98908376477 -0.0574063962602 1.34778140499
H -8.42508015578 -1.0789973978 -0.0843696104746
H -4.69769447929 -2.71174537083 0.143979694976

64
N 6.79319582249 1.34119056093 -0.675660904775
C 5.74108802187 2.24909463903 -0.216535457794
C 5.37367149004 1.99286856189 1.23004523715
O 5.94443308099 2.66874711645 2.13077924991
C 4.52742994138 2.18573986443 -1.14780362629
N 4.3370902786 1.07395281082 1.60919251195
C 4.43106521698 -0.370039645118 1.36916912427
C 3.14497626397 -1.04594309186 1.80093360007
O 2.87853307263 -1.12374643128 3.03104643045
C 5.64071293649 -0.955491535373 2.12248894538
O 5.78302856145 -2.32623637039 1.86133513148
N 2.21104675426 -1.59211908406 0.85718115869
C 2.1719608133 -1.19204372975 -0.548377415624
C 0.943608554716 -1.73040804558 -1.21890780224
O 1.06398144814 -2.53302060211 -2.18420785129
N -0.356622586366 -1.33181676154 -0.76072444033
C -1.5925247016 -1.96358427766 -1.2370887961
C -2.70866530343 -0.949709223114 -1.27322306616
O -3.21137262659 -0.634626193323 -2.38595342513
C -1.97346468223 -3.15554106255 -0.338026843087
C -1.01982928843 -4.30263715363 -0.502252682653
O -0.931254932241 -4.88425998022 -1.61762136623
N -0.210108473484 -4.74337821851 0.588806567658
N -3.19547021894 -0.349605888486 -0.0570864538398
C -4.40253013573 0.480147650955 0.036987398075
C -5.62446191202 -0.353111477903 -0.271015198646
O -5.87475442864 -0.708807944063 -1.4520911498
C -4.28569715026 1.74207568491 -0.855148163877
C -5.12084082584 2.94810716293 -0.357690239132
C -4.74888327154 4.20286681615 -1.15897079182
C -6.63194728507 2.69525362436 -0.466433933996
O -6.48173205145 -0.75422972192 0.750903824036
H 6.48190728051 0.35088093117 -0.573524650824
H 7.63504637703 1.46973386099 -0.0667732826569
H 6.13704527872 3.2869932957 -0.284172539347
H 4.17331608879 1.14133228377 -1.26971113429
H 3.70298582613 2.81042339272 -0.744871926341
H 4.80385441992 2.57694649285 -2.14983330663
H 3.63717953174 1.4243213334 2.30496546197
H 4.59080972805 -0.546597906471 0.290038073545
H 5.55167791522 -0.769200047284 3.21750944317
H 6.56701117341 -0.446959607214 1.78166606356
H 5.16445994887 -2.8037863716 2.47246464202
H 1.45501145109 -2.20794977184 1.23292131807
H 2.1552220049 -0.0851254037159 -0.619091481348
H 3.0741927425 -1.57756258183 -1.06869301249
H -0.405086810619 -0.671009598162 0.0473425353605
H -1.4470913082 -2.33417334038 -2.27623628793
H -2.99414487535 -3.51293967652 -0.599266535135
H -1.99415202144 -2.83308688461 0.72549038126
H 0.464521231537 -5.53067216814 0.460194514524
H -0.250972732647 -4.26176552016 1.51587944605
H -2.68176188044 -0.543092848041 0.832730595642
H -4.4813851966 0.820671854111 1.0936174017
H -4.55714834088 1.50924814406 -1.90743472667
H -3.21676267132 2.05048294047 -0.862984086524
H -4.87355043768 3.14642266965 0.709007253262
H -3.66668151421 4.42886105036 -1.04160220795
H -5.32260970705 5.08030953657 -0.789609744712
H -4.97177609789 4.05683518952 -2.23718250591
H -6.90365964885 2.38149837985 -1.49776432384
H -7.19720645087 3.61774455862 -0.215591754742
H -6.95051204693 1.9136028014 0.252518975446
H -6.29540164086 -0.522075043652 1.71802426524
