
18
C -1.90406 0.978081 -0.600704
C -1.31661 -0.171774 0.198687
O -2.16568 -1.3155 0.0877241
C 0.074301 -0.528884 -0.275284
N 0.923163 -1.25331 0.686943
C 1.21855 0.14732 0.355778
C 2.47211 0.334533 -0.469312
H -2.91041 1.22134 -0.241486
H -1.26193 1.86867 -0.493831
H -1.95921 0.701954 -1.66639
H -1.30379 0.137384 1.27865
H -1.92554 -1.91928 0.778811
H 0.219426 -0.885074 -1.3273
H 0.473321 -1.29188 1.59424
H 0.996341 0.855054 1.1862
H 3.34076 0.404008 0.195256
H 2.39905 1.24693 -1.07211
H 2.63022 -0.529578 -1.15432

18
C -1.90658 0.977765 -0.604225
C -1.32204 -0.170379 0.191743
O -2.17763 -1.30156 0.0776218
C 0.0696415 -0.539876 -0.253796
N 0.921879 -1.24988 0.685909
C 1.23468 0.130629 0.360421
C 2.47331 0.341297 -0.464117
H -2.90436 1.21952 -0.246204
H -1.27017 1.85954 -0.497294
H -1.96097 0.706929 -1.65542
H -1.29026 0.133452 1.25925
H -1.92021 -1.93044 0.78257
H 0.201756 -0.871673 -1.29676
H 0.472986 -1.29303 1.58397
H 1.00729 0.851335 1.15777
H 3.34117 0.405423 0.186842
H 2.40584 1.24353 -1.06981
H 2.62369 -0.512582 -1.13693

18
C -1.90281 0.973532 -0.601584
C -1.32987 -0.173171 0.194882
O -2.18261 -1.30266 0.0832619
C 0.0708709 -0.538969 -0.249467
N 0.928468 -1.26181 0.682451
C 1.23765 0.125817 0.3613
C 2.4721 0.341184 -0.460782
H -2.90777 1.21962 -0.247262
H -1.27269 1.85876 -0.499943
H -1.96379 0.708535 -1.65866
H -1.28058 0.132797 1.24763
H -1.92125 -1.92703 0.769991
H 0.187724 -0.864952 -1.27773
H 0.468749 -1.29539 1.59009
H 1.01607 0.852834 1.14122
H 3.34919 0.408166 0.185547
H 2.40965 1.24808 -1.0705
H 2.62089 -0.505348 -1.12891

18
C -1.90593 0.969622 -0.600828
C -1.32979 -0.179984 0.195493
O -2.19059 -1.29771 0.082348
C 0.0690382 -0.532674 -0.24041
N 0.929668 -1.27595 0.688955
C 1.23728 0.121487 0.35728
C 2.47488 0.346774 -0.45705
H -2.91048 1.21944 -0.248474
H -1.27213 1.86099 -0.501711
H -1.96662 0.709125 -1.66386
H -1.27268 0.135053 1.24639
H -1.92027 -1.93003 0.76302
H 0.175873 -0.86393 -1.2733
H 0.46917 -1.29886 1.59231
H 1.02267 0.859202 1.13369
H 3.35721 0.411242 0.185113
H 2.41213 1.25222 -1.06944
H 2.62055 -0.506019 -1.12799

18
C -1.90974 0.971253 -0.608898
C -1.32716 -0.17617 0.199352
O -2.2037 -1.29452 0.0834524
C 0.0665733 -0.541647 -0.236068
N 0.924984 -1.28258 0.691806
C 1.24057 0.118819 0.363232
C 2.48674 0.348347 -0.460024
H -2.91534 1.2176 -0.250136
H -1.27458 1.85851 -0.504481
H -1.97216 0.709549 -1.66844
H -1.26258 0.14083 1.25592
H -1.92063 -1.93865 0.746779
H 0.155599 -0.865537 -1.27308
H 0.471713 -1.3073 1.60301
H 1.03207 0.870806 1.12732
H 3.36931 0.417837 0.185006
H 2.41469 1.25961 -1.06421
H 2.62362 -0.506763 -1.129

18
C -1.91138 0.971298 -0.607959
C -1.33381 -0.172219 0.203528
O -2.20719 -1.28643 0.0872689
C 0.0665968 -0.546975 -0.233003
N 0.920695 -1.28026 0.69633
C 1.24774 0.11434 0.360951
C 2.48957 0.346137 -0.45738
H -2.91709 1.21562 -0.252526
H -1.27713 1.85743 -0.507707
H -1.97632 0.708578 -1.67315
H -1.25756 0.144314 1.26007
H -1.92138 -1.94652 0.732911
H 0.14261 -0.868839 -1.27421
H 0.475581 -1.31433 1.60856
H 1.03702 0.878172 1.12542
H 3.3768 0.422339 0.183415
H 2.41657 1.26387 -1.05959
H 2.62868 -0.506533 -1.1314

18
C -1.91452 0.967889 -0.608379
C -1.33517 -0.168551 0.211811
O -2.21159 -1.2724 0.0949754
C 0.0597591 -0.544179 -0.231229
N 0.919945 -1.27387 0.701675
C 1.24904 0.114285 0.363107
C 2.49446 0.343486 -0.456283
H -2.91933 1.21375 -0.256427
H -1.28036 1.85946 -0.512989
H -1.98077 0.706464 -1.67221
H -1.25625 0.148777 1.26105
H -1.92083 -1.95777 0.711847
H 0.12949 -0.876838 -1.27301
H 0.48163 -1.32303 1.61626
H 1.0435 0.877311 1.11754
H 3.38258 0.426436 0.178694
H 2.41849 1.26194 -1.04918
H 2.63993 -0.503164 -1.1357

18
C -1.91379 0.970245 -0.607618
C -1.33301 -0.165179 0.213086
O -2.21965 -1.26507 0.10013
C 0.0598014 -0.540082 -0.229192
N 0.920702 -1.26972 0.701787
C 1.24692 0.110924 0.358662
C 2.49609 0.339807 -0.455114
H -2.92248 1.21297 -0.258713
H -1.28503 1.85959 -0.517647
H -1.98301 0.702769 -1.66911
H -1.25752 0.154478 1.26479
H -1.91787 -1.96609 0.696152
H 0.121737 -0.883129 -1.26745
H 0.485791 -1.32737 1.62229
H 1.04642 0.877346 1.115
H 3.38606 0.427834 0.176348
H 2.41915 1.26032 -1.04258
H 2.64971 -0.499632 -1.13928

18
C -1.9157 0.972166 -0.606533
C -1.33345 -0.161152 0.21504
O -2.22714 -1.26054 0.103838
C 0.059154 -0.540002 -0.230356
N 0.920036 -1.27224 0.704254
C 1.24883 0.113714 0.355353
C 2.4965 0.336711 -0.454526
H -2.92443 1.21258 -0.260065
H -1.28807 1.86257 -0.521725
H -1.98363 0.698004 -1.66512
H -1.26013 0.160616 1.26789
H -1.91298 -1.97161 0.682141
H 0.117273 -0.888619 -1.25977
H 0.490959 -1.32809 1.62311
H 1.04758 0.87612 1.11372
H 3.38765 0.427113 0.176518
H 2.41882 1.25968 -1.03896
H 2.65873 -0.49704 -1.14326

18
C -1.92108 0.974997 -0.604314
C -1.34013 -0.154693 0.221393
O -2.2372 -1.2523 0.112107
C 0.0576711 -0.542935 -0.220009
N 0.920633 -1.27685 0.69951
C 1.24986 0.112919 0.352647
C 2.50182 0.335587 -0.456351
H -2.92871 1.21292 -0.260937
H -1.29265 1.87264 -0.529474
H -1.98343 0.6868 -1.65768
H -1.26647 0.173182 1.27167
H -1.90059 -1.97805 0.652421
H 0.112342 -0.902114 -1.25051
H 0.499038 -1.32453 1.62539
H 1.04838 0.873908 1.11257
H 3.38764 0.422878 0.179849
H 2.41764 1.25922 -1.03502
H 2.67524 -0.49358 -1.15172

18
C -1.91978 0.979451 -0.603157
C -1.34271 -0.152957 0.227569
O -2.24244 -1.24381 0.118215
C 0.0500629 -0.545828 -0.216374
N 0.920947 -1.27921 0.700969
C 1.25156 0.106555 0.35231
C 2.50543 0.33507 -0.459303
H -2.93458 1.21447 -0.260339
H -1.2983 1.87697 -0.534814
H -1.98385 0.6786 -1.65522
H -1.27101 0.181905 1.2744
H -1.88941 -1.98265 0.630357
H 0.108195 -0.910569 -1.2438
H 0.505466 -1.32141 1.62552
H 1.04979 0.872762 1.11155
H 3.3882 0.419854 0.184095
H 2.41797 1.26147 -1.03445
H 2.68447 -0.490674 -1.15598

18
C -1.92404 0.978258 -0.602824
C -1.34204 -0.149083 0.230203
O -2.24495 -1.23799 0.122826
C 0.0477571 -0.549014 -0.216055
N 0.920668 -1.27932 0.702755
C 1.25167 0.0999912 0.351784
C 2.50494 0.335 -0.459447
H -2.93477 1.21608 -0.260627
H -1.3011 1.88049 -0.537341
H -1.98418 0.674427 -1.65438
H -1.27405 0.187002 1.2783
H -1.87888 -1.98529 0.615135
H 0.104001 -0.914548 -1.24034
H 0.50827 -1.31908 1.62868
H 1.05214 0.869284 1.10897
H 3.38748 0.417828 0.187712
H 2.41994 1.26509 -1.03638
H 2.68712 -0.489131 -1.15742

18
C -1.92379 0.979397 -0.604672
C -1.34253 -0.142922 0.233138
O -2.24415 -1.23186 0.129819
C 0.0484162 -0.552225 -0.213342
N 0.918506 -1.283 0.707069
C 1.25222 0.0970645 0.349013
C 2.50243 0.337922 -0.459979
H -2.93518 1.21956 -0.259717
H -1.30758 1.88045 -0.539669
H -1.98475 0.670201 -1.65361
H -1.27823 0.192529 1.28385
H -1.85979 -1.98665 0.595676
H 0.0990366 -0.919372 -1.24143
H 0.509618 -1.31417 1.63503
H 1.0553 0.859143 1.10427
H 3.38104 0.414001 0.192773
H 2.42424 1.2676 -1.03937
H 2.6852 -0.487667 -1.15731

18
C -1.92485 0.979898 -0.604656
C -1.34088 -0.141637 0.235173
O -2.242 -1.2318 0.133157
C 0.0472153 -0.552647 -0.213768
N 0.917471 -1.28483 0.708328
C 1.25208 0.0962073 0.34473
C 2.50242 0.337773 -0.462701
H -2.93379 1.22069 -0.259751
H -1.30849 1.88116 -0.540365
H -1.98521 0.669536 -1.65431
H -1.27921 0.194282 1.2842
H -1.84899 -1.98603 0.588352
H 0.097645 -0.920008 -1.24158
H 0.508398 -1.31124 1.63899
H 1.05508 0.856388 1.10636
H 3.37546 0.412397 0.194393
H 2.42635 1.26652 -1.03928
H 2.68128 -0.486665 -1.15572

18
C -1.92339 0.979271 -0.60432
C -1.34117 -0.138636 0.235482
O -2.2426 -1.22871 0.143792
C 0.043448 -0.552292 -0.211619
N 0.913297 -1.28492 0.711186
C 1.24757 0.0966995 0.342183
C 2.50168 0.334376 -0.464026
H -2.93607 1.22143 -0.260706
H -1.30867 1.88552 -0.544964
H -1.98839 0.668205 -1.65414
H -1.27693 0.201826 1.28593
H -1.82341 -1.99269 0.565074
H 0.0887046 -0.923434 -1.23723
H 0.509306 -1.30749 1.64496
H 1.05663 0.853614 1.10886
H 3.36997 0.411063 0.196467
H 2.4302 1.26559 -1.03526
H 2.67983 -0.489421 -1.16011

18
C -1.92333 0.982307 -0.606164
C -1.34061 -0.13938 0.23622
O -2.23782 -1.23402 0.150836
C 0.041598 -0.550105 -0.210755
N 0.909441 -1.28266 0.712798
C 1.2421 0.0986811 0.343432
C 2.4953 0.330607 -0.463861
H -2.93429 1.22109 -0.261329
H -1.30583 1.88554 -0.546409
H -1.99031 0.671358 -1.65477
H -1.27196 0.204405 1.28267
H -1.80279 -1.99441 0.555214
H 0.0851986 -0.921882 -1.2366
H 0.506374 -1.30273 1.64586
H 1.05581 0.852496 1.11303
H 3.36569 0.409288 0.198492
H 2.43278 1.26475 -1.03436
H 2.67266 -0.495333 -1.16276

18
C -1.92482 0.983487 -0.606317
C -1.34327 -0.135422 0.236633
O -2.23722 -1.23557 0.157272
C 0.03779 -0.549221 -0.209072
N 0.908473 -1.28193 0.713572
C 1.24342 0.0987742 0.346043
C 2.49371 0.328806 -0.463354
H -2.93387 1.2214 -0.261903
H -1.305 1.88408 -0.548273
H -1.99176 0.673024 -1.65601
H -1.26741 0.20786 1.28137
H -1.78668 -1.99982 0.54378
H 0.0813356 -0.921912 -1.23551
H 0.503637 -1.30043 1.64706
H 1.05574 0.854574 1.11377
H 3.36414 0.405556 0.198208
H 2.4331 1.26351 -1.03332
H 2.6687 -0.49676 -1.16239

18
C -1.92519 0.9821 -0.607454
C -1.34493 -0.135616 0.235287
O -2.23372 -1.23918 0.159638
C 0.0390343 -0.548187 -0.210401
N 0.907271 -1.28021 0.714141
C 1.2432 0.0992272 0.348743
C 2.49348 0.328834 -0.462933
H -2.9342 1.22256 -0.261266
H -1.30282 1.882 -0.547405
H -1.99167 0.676058 -1.65701
H -1.26455 0.207969 1.28008
H -1.7812 -2.00049 0.543823
H 0.0827755 -0.918929 -1.23599
H 0.500142 -1.29923 1.64446
H 1.0541 0.857496 1.11497
H 3.36339 0.401745 0.196634
H 2.43139 1.26152 -1.03405
H 2.66349 -0.497676 -1.15972

18
C -1.92842 0.982018 -0.60795
C -1.34365 -0.136702 0.237529
O -2.23264 -1.23876 0.16752
C 0.0404989 -0.546595 -0.209978
N 0.904313 -1.27783 0.714415
C 1.24402 0.101111 0.350633
C 2.49272 0.327691 -0.461485
H -2.93679 1.22576 -0.261097
H -1.30274 1.87959 -0.548268
H -1.9924 0.676822 -1.65847
H -1.26329 0.212813 1.28023
H -1.76722 -2.00549 0.531587
H 0.0828713 -0.918333 -1.23531
H 0.496167 -1.29822 1.64411
H 1.05264 0.861104 1.11445
H 3.36563 0.393943 0.19527
H 2.42815 1.25915 -1.03398
H 2.66014 -0.498071 -1.15767

18
C -1.92884 0.980504 -0.606831
C -1.3417 -0.136824 0.236462
O -2.22994 -1.24151 0.1691
C 0.0408381 -0.544137 -0.211206
N 0.904886 -1.27669 0.713858
C 1.24346 0.103665 0.351955
C 2.49182 0.327439 -0.459523
H -2.93754 1.22776 -0.260782
H -1.30214 1.87694 -0.546848
H -1.99242 0.678069 -1.65967
H -1.26332 0.213213 1.27963
H -1.76493 -2.00602 0.532451
H 0.0875374 -0.915748 -1.23715
H 0.491749 -1.29814 1.64294
H 1.05042 0.864036 1.11471
H 3.36833 0.389591 0.19381
H 2.42529 1.25779 -1.03512
H 2.6565 -0.49995 -1.15624

18
C -1.92978 0.98027 -0.606974
C -1.34215 -0.134776 0.237743
O -2.22978 -1.24101 0.172728
C 0.0408691 -0.542469 -0.211209
N 0.905003 -1.27673 0.715738
C 1.24179 0.103745 0.351827
C 2.49249 0.326592 -0.45929
H -2.93793 1.22877 -0.261187
H -1.30346 1.87628 -0.54731
H -1.99353 0.677097 -1.65874
H -1.26372 0.215779 1.27999
H -1.75896 -2.00869 0.5252
H 0.0882967 -0.915576 -1.23691
H 0.490185 -1.298 1.64348
H 1.04992 0.865702 1.11412
H 3.37056 0.386988 0.193301
H 2.42477 1.25712 -1.03427
H 2.65543 -0.501104 -1.15668

18
C -1.93071 0.980301 -0.607244
C -1.34314 -0.135285 0.2374
O -2.22909 -1.24047 0.175532
C 0.0404183 -0.541797 -0.210564
N 0.904689 -1.27628 0.717113
C 1.24235 0.104201 0.352251
C 2.49355 0.32506 -0.459132
H -2.93794 1.22906 -0.261661
H -1.30499 1.8767 -0.54745
H -1.99533 0.675181 -1.65724
H -1.26422 0.218239 1.28115
H -1.75534 -2.0101 0.518687
H 0.0897536 -0.91385 -1.23642
H 0.488255 -1.29825 1.64465
H 1.04947 0.867379 1.11261
H 3.37288 0.385814 0.191911
H 2.42576 1.25663 -1.03283
H 2.65365 -0.502536 -1.15722

18
C -1.93113 0.97953 -0.606629
C -1.34305 -0.134086 0.239457
O -2.22987 -1.24075 0.178241
C 0.0409485 -0.541687 -0.208874
N 0.902999 -1.27496 0.719269
C 1.24404 0.104189 0.353306
C 2.49503 0.323412 -0.458758
H -2.93922 1.22921 -0.26179
H -1.3072 1.87813 -0.547759
H -1.99846 0.671571 -1.65623
H -1.26531 0.220913 1.28104
H -1.75107 -2.01176 0.509604
H 0.0921499 -0.910563 -1.23574
H 0.48586 -1.2984 1.6458
H 1.04899 0.869969 1.11012
H 3.37596 0.38453 0.189268
H 2.42837 1.25557 -1.03048
H 2.65096 -0.504822 -1.1583

18
C -1.93199 0.97989 -0.606111
C -1.34276 -0.133469 0.239511
O -2.22963 -1.24053 0.178858
C 0.0414402 -0.541015 -0.208155
N 0.9028 -1.27517 0.719852
C 1.24427 0.104146 0.354558
C 2.49479 0.322031 -0.45936
H -2.93965 1.2286 -0.261052
H -1.3081 1.87832 -0.548409
H -1.99922 0.670037 -1.65607
H -1.26603 0.221069 1.28123
H -1.74964 -2.01197 0.506525
H 0.0934915 -0.909123 -1.23574
H 0.485107 -1.29708 1.64605
H 1.04893 0.870721 1.11009
H 3.37638 0.383214 0.188651
H 2.42997 1.25519 -1.03069
H 2.64983 -0.504841 -1.15819

18
C -1.93327 0.980213 -0.606604
C -1.34237 -0.132602 0.240064
O -2.22916 -1.23978 0.179837
C 0.0416831 -0.539913 -0.207831
N 0.902781 -1.27531 0.720374
C 1.24508 0.103975 0.355788
C 2.49422 0.321438 -0.458977
H -2.94072 1.22737 -0.259518
H -1.30954 1.87847 -0.549893
H -2.00033 0.668171 -1.65516
H -1.26683 0.221149 1.28166
H -1.74706 -2.01256 0.501149
H 0.0950019 -0.906897 -1.23515
H 0.483897 -1.2948 1.64727
H 1.04918 0.872072 1.11091
H 3.37647 0.380641 0.187592
H 2.43252 1.25411 -1.03103
H 2.64844 -0.505744 -1.15892

18
C -1.93541 0.978608 -0.605697
C -1.34188 -0.131708 0.240399
O -2.22844 -1.23846 0.179043
C 0.0427337 -0.535941 -0.206346
N 0.901431 -1.27207 0.723479
C 1.24546 0.107409 0.358045
C 2.49555 0.319354 -0.458703
H -2.9433 1.22247 -0.255868
H -1.31297 1.87833 -0.554806
H -2.00421 0.665705 -1.65459
H -1.26608 0.220129 1.28341
H -1.74555 -2.01432 0.491041
H 0.0970154 -0.900581 -1.23466
H 0.481922 -1.29105 1.64922
H 1.05197 0.874883 1.11407
H 3.3789 0.374175 0.185142
H 2.43761 1.25132 -1.03128
H 2.64524 -0.508263 -1.16035

18
C -1.93603 0.977828 -0.60606
C -1.34199 -0.131407 0.240803
O -2.2286 -1.23834 0.177716
C 0.0427869 -0.534921 -0.205496
N 0.901626 -1.27089 0.724004
C 1.24634 0.108219 0.358005
C 2.49583 0.318764 -0.459075
H -2.94402 1.22117 -0.254797
H -1.3145 1.87861 -0.556014
H -2.00556 0.664851 -1.65369
H -1.26611 0.219759 1.28386
H -1.74618 -2.01464 0.488876
H 0.0978243 -0.898923 -1.23443
H 0.48154 -1.28981 1.64952
H 1.05341 0.875452 1.1149
H 3.38045 0.371877 0.185302
H 2.43883 1.25105 -1.03176
H 2.64436 -0.508637 -1.1601

18
C -1.93735 0.978084 -0.605428
C -1.34242 -0.131207 0.24143
O -2.22869 -1.23848 0.175649
C 0.0429875 -0.533924 -0.204939
N 0.902216 -1.26925 0.724345
C 1.24712 0.109132 0.358107
C 2.49728 0.318761 -0.45903
H -2.94433 1.21966 -0.253814
H -1.31722 1.87893 -0.557423
H -2.00776 0.663098 -1.65305
H -1.26657 0.219679 1.28438
H -1.74636 -2.01516 0.485884
H 0.0987723 -0.896919 -1.23346
H 0.481211 -1.28762 1.64983
H 1.05607 0.875679 1.1157
H 3.38175 0.368222 0.185669
H 2.44037 1.25092 -1.03253
H 2.6429 -0.509615 -1.15977

18
C -1.93858 0.978033 -0.605388
C -1.34231 -0.130646 0.241142
O -2.22691 -1.23972 0.175197
C 0.0431116 -0.531709 -0.204682
N 0.902021 -1.2677 0.72475
C 1.2475 0.11059 0.358383
C 2.49744 0.317198 -0.458954
H -2.94587 1.21972 -0.253114
H -1.31966 1.88044 -0.558054
H -2.01152 0.661308 -1.65237
H -1.26764 0.220574 1.28439
H -1.74065 -2.01703 0.480582
H 0.0985831 -0.895796 -1.23305
H 0.48091 -1.28381 1.65044
H 1.05967 0.876327 1.11743
H 3.38114 0.363728 0.18614
H 2.44334 1.25031 -1.03192
H 2.63944 -0.511833 -1.15937

18
C -1.9397 0.977985 -0.605219
C -1.34232 -0.130986 0.240339
O -2.22541 -1.24091 0.172295
C 0.0440637 -0.530082 -0.205158
N 0.9025 -1.26666 0.724457
C 1.24819 0.111771 0.358829
C 2.49771 0.317008 -0.459132
H -2.94684 1.21954 -0.252654
H -1.32122 1.88079 -0.557583
H -2.01387 0.66067 -1.65206
H -1.26896 0.219384 1.28395
H -1.74244 -2.01726 0.482374
H 0.0993156 -0.89466 -1.2334
H 0.481276 -1.28241 1.64996
H 1.06237 0.877696 1.11837
H 3.38207 0.361771 0.186047
H 2.44525 1.24951 -1.03103
H 2.63801 -0.513162 -1.15886

18
C -1.94083 0.977888 -0.605343
C -1.34245 -0.130985 0.240214
O -2.22475 -1.24134 0.170837
C 0.0444626 -0.529124 -0.205084
N 0.902656 -1.26605 0.724477
C 1.24873 0.112388 0.359129
C 2.49866 0.316104 -0.458481
H -2.94776 1.21958 -0.252264
H -1.32235 1.88045 -0.557476
H -2.01515 0.660603 -1.65177
H -1.26999 0.218756 1.28366
H -1.74333 -2.01752 0.483063
H 0.0998827 -0.893935 -1.23348
H 0.481518 -1.28209 1.64962
H 1.06367 0.87897 1.1184
H 3.38298 0.360518 0.185459
H 2.44638 1.24947 -1.03064
H 2.63765 -0.513672 -1.15877
