
16
O -2.23338 1.43973 0.533451
C -2.28521 0.234592 -0.222197
C -0.886148 -0.213869 -0.614931
N -0.0661737 -0.474171 0.585443
N 1.2647 -0.740951 0.186592
C 2.34072 0.0563145 0.586846
N 3.52343 -0.202017 0.243631
H -2.04391 2.14386 -0.0831172
H -2.89732 0.392121 -1.1253
H -2.77123 -0.54433 0.388505
H -0.407034 0.574903 -1.22432
H -0.953324 -1.13443 -1.22178
H -0.433358 -1.29454 1.06358
H 1.43384 -1.57762 -0.404399
H 2.10948 0.940522 1.23105
H 4.30493 0.399884 0.551869

16
O -2.24605 1.43989 0.535755
C -2.28271 0.236831 -0.227518
C -0.890115 -0.219881 -0.615226
N -0.0456919 -0.481005 0.571093
N 1.28364 -0.731857 0.197421
C 2.33937 0.0580021 0.587922
N 3.54628 -0.223065 0.225928
H -2.04125 2.14167 -0.0798766
H -2.89311 0.384682 -1.12051
H -2.76706 -0.530658 0.387172
H -0.407782 0.56364 -1.21254
H -0.954069 -1.1268 -1.22811
H -0.425896 -1.28111 1.06211
H 1.4396 -1.54661 -0.384766
H 2.08339 0.923335 1.22305
H 4.26145 0.392947 0.55303

16
O -2.25953 1.43199 0.539655
C -2.27873 0.242047 -0.22499
C -0.885872 -0.224099 -0.610805
N -0.0279645 -0.477919 0.555626
N 1.28553 -0.723017 0.208721
C 2.35831 0.0591147 0.586266
N 3.5347 -0.250187 0.208712
H -2.0369 2.14536 -0.080891
H -2.89182 0.378213 -1.121
H -2.76454 -0.519658 0.387539
H -0.407376 0.555631 -1.20386
H -0.956253 -1.12309 -1.23734
H -0.418888 -1.27363 1.0652
H 1.45186 -1.52722 -0.373739
H 2.06143 0.906451 1.21461
H 4.23605 0.40001 0.56123

16
O -2.26601 1.43618 0.535174
C -2.27478 0.242777 -0.218552
C -0.876925 -0.223984 -0.607123
N -0.0327122 -0.472524 0.556708
N 1.28309 -0.716274 0.214438
C 2.35412 0.054374 0.584213
N 3.5342 -0.260802 0.201266
H -2.03501 2.14264 -0.0742603
H -2.8919 0.373879 -1.12611
H -2.76522 -0.516596 0.39119
H -0.404003 0.555784 -1.20299
H -0.959562 -1.12372 -1.24635
H -0.409819 -1.26477 1.06938
H 1.46946 -1.52897 -0.377534
H 2.05363 0.897806 1.20976
H 4.22144 0.404202 0.565734

16
O -2.27614 1.4375 0.535828
C -2.27229 0.243352 -0.219359
C -0.873704 -0.225434 -0.609152
N -0.0384321 -0.460343 0.565569
N 1.27969 -0.727917 0.206677
C 2.35169 0.0443723 0.578476
N 3.52853 -0.262174 0.200866
H -2.02939 2.14586 -0.0699112
H -2.88693 0.365969 -1.12889
H -2.76696 -0.515272 0.399773
H -0.396151 0.560031 -1.20434
H -0.963334 -1.1213 -1.25543
H -0.399018 -1.25489 1.07951
H 1.49278 -1.52566 -0.378684
H 2.04813 0.890243 1.20528
H 4.20154 0.405669 0.568716

16
O -2.28156 1.43857 0.535327
C -2.27481 0.239971 -0.221493
C -0.878611 -0.222411 -0.614122
N -0.0323094 -0.454258 0.567002
N 1.28201 -0.72964 0.20532
C 2.34341 0.0391954 0.576248
N 3.52243 -0.262781 0.201239
H -2.02487 2.14865 -0.0665382
H -2.88161 0.36003 -1.12883
H -2.76577 -0.513107 0.403943
H -0.391176 0.56183 -1.2042
H -0.964019 -1.11777 -1.25764
H -0.396215 -1.25144 1.08928
H 1.5028 -1.53095 -0.384053
H 2.04716 0.885345 1.20206
H 4.19314 0.40877 0.57139

16
O -2.28649 1.4393 0.529684
C -2.2773 0.238912 -0.218745
C -0.880058 -0.215342 -0.614537
N -0.0272712 -0.458259 0.563084
N 1.28261 -0.739519 0.198377
C 2.33897 0.0409619 0.577802
N 3.51759 -0.26209 0.202447
H -2.01915 2.14953 -0.060263
H -2.87851 0.352709 -1.13196
H -2.76271 -0.511075 0.407534
H -0.388174 0.56282 -1.20326
H -0.963136 -1.11312 -1.2575
H -0.393394 -1.24095 1.09824
H 1.50624 -1.53736 -0.389483
H 2.0461 0.881066 1.19934
H 4.18468 0.412416 0.574175

16
O -2.29732 1.43652 0.525976
C -2.27738 0.243159 -0.217889
C -0.878402 -0.210737 -0.609247
N -0.0202089 -0.465477 0.549925
N 1.28454 -0.750071 0.190635
C 2.33237 0.0346417 0.573811
N 3.51445 -0.258084 0.205735
H -2.00725 2.15398 -0.0542885
H -2.87573 0.33986 -1.13763
H -2.75855 -0.510411 0.415069
H -0.384518 0.566898 -1.20244
H -0.96139 -1.10357 -1.25598
H -0.391041 -1.22375 1.11344
H 1.50874 -1.55051 -0.399781
H 2.0406 0.879807 1.19945
H 4.17109 0.417738 0.578144

16
O -2.3043 1.44289 0.526613
C -2.27565 0.241697 -0.220722
C -0.874402 -0.211506 -0.608431
N -0.0155546 -0.468036 0.543315
N 1.28541 -0.757938 0.184641
C 2.33003 0.0314712 0.571488
N 3.51495 -0.259538 0.204663
H -1.99963 2.15329 -0.0497546
H -2.87512 0.331629 -1.14008
H -2.75541 -0.509893 0.418572
H -0.384399 0.570556 -1.20084
H -0.961076 -1.09727 -1.25553
H -0.392091 -1.21382 1.12333
H 1.50719 -1.55664 -0.404326
H 2.03368 0.877912 1.19914
H 4.16636 0.425207 0.58286

16
O -2.31319 1.44577 0.52754
C -2.27235 0.239908 -0.219201
C -0.870851 -0.207879 -0.61167
N -0.0114718 -0.472344 0.543878
N 1.2876 -0.76352 0.180177
C 2.33264 0.0268639 0.567249
N 3.51878 -0.25624 0.206259
H -1.98806 2.15353 -0.0472667
H -2.87544 0.32248 -1.14128
H -2.74999 -0.508099 0.419595
H -0.387079 0.575507 -1.19734
H -0.961125 -1.09469 -1.25907
H -0.395416 -1.20012 1.13282
H 1.50132 -1.56534 -0.410067
H 2.02239 0.870821 1.19565
H 4.16225 0.433351 0.587651

16
O -2.32011 1.44872 0.520606
C -2.27029 0.242429 -0.218002
C -0.869977 -0.205939 -0.609399
N -0.00782197 -0.470262 0.54101
N 1.29142 -0.771776 0.175806
C 2.33689 0.0211057 0.561821
N 3.52533 -0.248756 0.210043
H -1.97399 2.14859 -0.0408105
H -2.87466 0.31189 -1.13817
H -2.74265 -0.508299 0.42084
H -0.389271 0.586036 -1.1948
H -0.960433 -1.09338 -1.26605
H -0.402301 -1.18666 1.14606
H 1.49018 -1.57551 -0.415795
H 2.00743 0.857586 1.18819
H 4.16025 0.444229 0.59358

16
O -2.32217 1.44635 0.51687
C -2.27141 0.242639 -0.217929
C -0.869807 -0.206037 -0.610193
N -0.00891083 -0.468333 0.541631
N 1.29219 -0.776607 0.175668
C 2.33516 0.0171761 0.55923
N 3.52941 -0.246871 0.210253
H -1.96487 2.14744 -0.0394556
H -2.87411 0.308375 -1.13506
H -2.73939 -0.510118 0.422634
H -0.390575 0.591016 -1.19342
H -0.959091 -1.09004 -1.26804
H -0.403174 -1.17799 1.14861
H 1.48349 -1.57948 -0.417312
H 2.00038 0.850171 1.18365
H 4.16286 0.452311 0.597781

16
O -2.32223 1.44544 0.514285
C -2.2714 0.238145 -0.217448
C -0.86957 -0.203314 -0.611357
N -0.00767887 -0.462958 0.539568
N 1.28775 -0.781729 0.177871
C 2.33478 0.0132784 0.556999
N 3.53426 -0.242498 0.211818
H -1.95544 2.14567 -0.0387528
H -2.87558 0.30655 -1.13398
H -2.73697 -0.512858 0.425258
H -0.392349 0.593993 -1.19145
H -0.957027 -1.08596 -1.26941
H -0.403557 -1.1717 1.15033
H 1.47743 -1.58348 -0.418615
H 1.99431 0.843914 1.1796
H 4.16327 0.457499 0.600223

16
O -2.32043 1.44472 0.514635
C -2.26997 0.235699 -0.217619
C -0.870239 -0.200525 -0.611212
N -0.00759043 -0.45782 0.538851
N 1.29029 -0.785081 0.18021
C 2.33452 0.0120914 0.557254
N 3.53369 -0.241661 0.211766
H -1.94829 2.14272 -0.0395407
H -2.87874 0.305725 -1.13495
H -2.73644 -0.516455 0.428658
H -0.393424 0.596036 -1.1909
H -0.954345 -1.08324 -1.27084
H -0.403762 -1.16733 1.1491
H 1.4732 -1.58548 -0.41879
H 1.99097 0.84047 1.17698
H 4.16056 0.460128 0.601325

16
O -2.31506 1.44316 0.514974
C -2.27413 0.23414 -0.216929
C -0.868505 -0.199457 -0.612514
N -0.00443719 -0.45163 0.539905
N 1.29042 -0.788745 0.184793
C 2.33519 0.0103614 0.558036
N 3.53212 -0.24129 0.211273
H -1.93854 2.13572 -0.0409163
H -2.88274 0.304602 -1.13398
H -2.73461 -0.520591 0.431711
H -0.395218 0.600361 -1.19184
H -0.949413 -1.07918 -1.27247
H -0.405067 -1.16117 1.14466
H 1.4678 -1.5879 -0.4189
H 1.98698 0.839345 1.17557
H 4.15521 0.462288 0.601559

16
O -2.31275 1.44122 0.515114
C -2.27375 0.231953 -0.215566
C -0.868167 -0.195572 -0.612646
N -0.00329797 -0.448582 0.538707
N 1.28955 -0.793254 0.186815
C 2.33275 0.00700153 0.557566
N 3.53093 -0.242002 0.210599
H -1.92872 2.1294 -0.04164
H -2.88553 0.301886 -1.13091
H -2.73173 -0.521335 0.432175
H -0.397235 0.605482 -1.19332
H -0.944405 -1.07797 -1.27504
H -0.408257 -1.15544 1.14423
H 1.46462 -1.58921 -0.419175
H 1.9845 0.840988 1.17619
H 4.15149 0.465431 0.601831

16
O -2.30925 1.43818 0.515821
C -2.2688 0.229964 -0.215717
C -0.866767 -0.192579 -0.617546
N -0.00586396 -0.444979 0.53602
N 1.28547 -0.798804 0.192571
C 2.32906 0.00542643 0.559351
N 3.52724 -0.24156 0.211377
H -1.90939 2.11645 -0.0425544
H -2.8903 0.296195 -1.12216
H -2.7268 -0.52375 0.433531
H -0.402336 0.616185 -1.19634
H -0.933849 -1.07365 -1.27798
H -0.416449 -1.14501 1.14474
H 1.46033 -1.5926 -0.421419
H 1.98365 0.841513 1.17527
H 4.14405 0.469026 0.599969

16
O -2.30662 1.43679 0.515489
C -2.26889 0.227692 -0.214434
C -0.863548 -0.191611 -0.620596
N -0.00872989 -0.442811 0.534365
N 1.28504 -0.800046 0.195928
C 2.32669 0.00494168 0.559945
N 3.52456 -0.241833 0.211955
H -1.90075 2.11206 -0.0423032
H -2.89259 0.294366 -1.11907
H -2.72374 -0.52527 0.434285
H -0.40488 0.619636 -1.19709
H -0.929567 -1.07227 -1.28068
H -0.42166 -1.14186 1.14543
H 1.45943 -1.59049 -0.420621
H 1.98427 0.841265 1.17452
H 4.14096 0.469434 0.59782

16
O -2.3 1.43476 0.513278
C -2.26726 0.223218 -0.214566
C -0.863073 -0.191255 -0.624651
N -0.0115985 -0.441727 0.534942
N 1.28027 -0.800124 0.205195
C 2.32295 0.00590145 0.561444
N 3.51973 -0.245147 0.211764
H -1.88439 2.10591 -0.0394796
H -2.89748 0.291583 -1.11542
H -2.71721 -0.531535 0.43871
H -0.407913 0.625905 -1.19903
H -0.922352 -1.07134 -1.28996
H -0.433094 -1.13502 1.14465
H 1.45963 -1.58207 -0.417802
H 1.9853 0.841542 1.1738
H 4.13648 0.469399 0.592054

16
O -2.29873 1.43255 0.509629
C -2.2671 0.218878 -0.215656
C -0.863437 -0.190295 -0.629147
N -0.0156766 -0.440282 0.532206
N 1.27803 -0.806207 0.212659
C 2.32134 0.00593718 0.562204
N 3.51729 -0.247022 0.211754
H -1.86128 2.10211 -0.0329681
H -2.90075 0.282786 -1.11386
H -2.70599 -0.536839 0.44477
H -0.409847 0.631988 -1.19787
H -0.916227 -1.06593 -1.30005
H -0.445474 -1.12246 1.15078
H 1.45686 -1.581 -0.421308
H 1.97952 0.843145 1.17431
H 4.13148 0.472639 0.587482

16
O -2.29654 1.43158 0.508217
C -2.26604 0.219215 -0.217725
C -0.863742 -0.19152 -0.631497
N -0.0191049 -0.44052 0.532462
N 1.27622 -0.807096 0.219051
C 2.31885 0.00705587 0.565057
N 3.51417 -0.246701 0.212237
H -1.8559 2.10065 -0.0284889
H -2.9029 0.279883 -1.11508
H -2.70074 -0.538115 0.445637
H -0.409693 0.629582 -1.19628
H -0.916588 -1.06458 -1.30429
H -0.450103 -1.12205 1.14978
H 1.45568 -1.57625 -0.422063
H 1.98049 0.849199 1.1769
H 4.13593 0.469667 0.58102

16
O -2.29767 1.43081 0.508211
C -2.26573 0.217523 -0.219508
C -0.862933 -0.192131 -0.631335
N -0.0203679 -0.439617 0.532223
N 1.27516 -0.809274 0.225212
C 2.31668 0.0073779 0.567897
N 3.51091 -0.246306 0.212136
H -1.84784 2.09831 -0.024997
H -2.90442 0.275607 -1.11504
H -2.69582 -0.537216 0.445572
H -0.407917 0.63063 -1.1964
H -0.917143 -1.0631 -1.30836
H -0.452384 -1.11892 1.14953
H 1.45426 -1.57312 -0.42334
H 1.9792 0.850761 1.17649
H 4.13602 0.46867 0.576638

16
O -2.30026 1.4294 0.506463
C -2.26412 0.218058 -0.220126
C -0.861054 -0.190528 -0.634017
N -0.019588 -0.437063 0.532468
N 1.27454 -0.813005 0.231951
C 2.31494 0.00660745 0.570283
N 3.50828 -0.24716 0.210588
H -1.83834 2.0942 -0.0206595
H -2.90578 0.270427 -1.1148
H -2.69238 -0.537124 0.446206
H -0.405584 0.632244 -1.19667
H -0.917758 -1.06116 -1.31121
H -0.454459 -1.11578 1.15073
H 1.45237 -1.56956 -0.42465
H 1.97557 0.851003 1.1752
H 4.13363 0.469427 0.573177

16
O -2.30081 1.42926 0.505238
C -2.26397 0.217443 -0.221282
C -0.860049 -0.188854 -0.634444
N -0.0216907 -0.435834 0.534706
N 1.27427 -0.814293 0.237898
C 2.31573 0.00741932 0.572173
N 3.50768 -0.247749 0.208994
H -1.8368 2.09284 -0.01832
H -2.90529 0.270112 -1.11446
H -2.69271 -0.537692 0.444793
H -0.402349 0.632097 -1.19875
H -0.919212 -1.06194 -1.30942
H -0.455258 -1.1186 1.1485
H 1.45091 -1.56539 -0.425371
H 1.9749 0.852625 1.17516
H 4.13464 0.468553 0.569526

16
O -2.30402 1.42984 0.502826
C -2.26289 0.216402 -0.220872
C -0.858554 -0.187474 -0.634676
N -0.022235 -0.435708 0.536069
N 1.27387 -0.819162 0.24396
C 2.31422 0.00615943 0.572648
N 3.50622 -0.246837 0.20846
H -1.82836 2.09114 -0.0137287
H -2.9053 0.266944 -1.11598
H -2.69053 -0.539864 0.444361
H -0.399181 0.634365 -1.20123
H -0.918174 -1.06033 -1.30725
H -0.459915 -1.11663 1.14934
H 1.44813 -1.56221 -0.428688
H 1.97304 0.852904 1.17423
H 4.13366 0.470468 0.565462

16
O -2.30781 1.43076 0.501184
C -2.26273 0.216844 -0.222642
C -0.856288 -0.185047 -0.633586
N -0.0222627 -0.436186 0.537223
N 1.27335 -0.823301 0.248777
C 2.31283 0.00488735 0.572711
N 3.5049 -0.246277 0.207788
H -1.82156 2.09033 -0.00948838
H -2.9038 0.264212 -1.11712
H -2.68891 -0.541785 0.444134
H -0.397265 0.634391 -1.2022
H -0.916963 -1.05991 -1.30541
H -0.463833 -1.11472 1.15046
H 1.4466 -1.55943 -0.432238
H 1.97182 0.852639 1.17329
H 4.13193 0.472599 0.562051

16
O -2.31478 1.43322 0.499976
C -2.26238 0.220317 -0.223876
C -0.855362 -0.186279 -0.628285
N -0.0225307 -0.436569 0.542772
N 1.2734 -0.825746 0.254673
C 2.31339 0.00419422 0.572773
N 3.50422 -0.24749 0.204217
H -1.82487 2.09331 -0.00425208
H -2.89736 0.266926 -1.1228
H -2.69086 -0.540271 0.437531
H -0.393693 0.626668 -1.20181
H -0.915874 -1.06323 -1.29627
H -0.46566 -1.12082 1.14827
H 1.44819 -1.55138 -0.437181
H 1.97462 0.853039 1.17305
H 4.12954 0.474122 0.556145

16
O -2.31494 1.43152 0.497988
C -2.26094 0.218484 -0.225843
C -0.853273 -0.185835 -0.628369
N -0.025104 -0.431381 0.547519
N 1.27113 -0.833301 0.266214
C 2.31111 0.00191293 0.575004
N 3.50112 -0.246914 0.201559
H -1.80944 2.08767 0.00146084
H -2.89658 0.265458 -1.12451
H -2.68721 -0.542445 0.435683
H -0.394227 0.628956 -1.2009
H -0.907768 -1.0639 -1.29601
H -0.473665 -1.11668 1.14813
H 1.44144 -1.54553 -0.442857
H 1.97352 0.85294 1.17181
H 4.12483 0.47906 0.548048

16
O -2.31429 1.4303 0.497668
C -2.25993 0.21811 -0.229671
C -0.8504 -0.189118 -0.624039
N -0.023719 -0.430077 0.554498
N 1.27022 -0.838808 0.268757
C 2.30991 -0.00167962 0.575912
N 3.4993 -0.243848 0.197157
H -1.81066 2.08891 0.00526579
H -2.88816 0.272448 -1.13317
H -2.69464 -0.539615 0.429955
H -0.393827 0.628099 -1.19593
H -0.89977 -1.07128 -1.28811
H -0.471794 -1.1185 1.1529
H 1.43207 -1.54079 -0.44935
H 1.97552 0.849982 1.17188
H 4.12016 0.48587 0.541204

16
O -2.31819 1.428 0.493292
C -2.25636 0.217183 -0.23582
C -0.844414 -0.190904 -0.620277
N -0.0260847 -0.430625 0.5626
N 1.2667 -0.850961 0.288706
C 2.3056 -0.00553056 0.578782
N 3.4918 -0.242846 0.188529
H -1.79469 2.08678 0.0202996
H -2.8772 0.271489 -1.14498
H -2.6971 -0.538546 0.422193
H -0.386706 0.627061 -1.19177
H -0.889989 -1.0756 -1.28138
H -0.477935 -1.115 1.16229
H 1.4209 -1.52381 -0.462505
H 1.97297 0.849498 1.17306
H 4.11069 0.49381 0.521911

16
O -2.31528 1.42575 0.493961
C -2.25435 0.217718 -0.237188
C -0.842086 -0.193239 -0.616305
N -0.0256197 -0.4348 0.565868
N 1.26633 -0.853566 0.290115
C 2.30351 -0.00585485 0.576334
N 3.48822 -0.241513 0.182106
H -1.79606 2.08751 0.0223011
H -2.86743 0.274003 -1.15192
H -2.70713 -0.53664 0.415118
H -0.381857 0.624385 -1.18666
H -0.886254 -1.07646 -1.27892
H -0.474508 -1.11149 1.1738
H 1.41823 -1.51772 -0.465317
H 1.96943 0.845734 1.17766
H 4.10485 0.496193 0.513983

16
O -2.31428 1.42281 0.492655
C -2.25085 0.21701 -0.241968
C -0.83548 -0.194649 -0.608439
N -0.0266053 -0.431867 0.579813
N 1.26361 -0.868703 0.309432
C 2.29766 -0.0088887 0.577509
N 3.47948 -0.236442 0.169212
H -1.7796 2.08051 0.0320887
H -2.85267 0.277594 -1.16379
H -2.71643 -0.538941 0.399762
H -0.373689 0.620999 -1.18037
H -0.873119 -1.07872 -1.27066
H -0.483109 -1.10532 1.18518
H 1.40511 -1.50181 -0.478111
H 1.96444 0.840582 1.18165
H 4.09554 0.505833 0.490968

16
O -2.31008 1.42196 0.496177
C -2.25098 0.216715 -0.240954
C -0.83582 -0.195646 -0.605523
N -0.0256717 -0.431321 0.582573
N 1.26359 -0.867435 0.306565
C 2.29709 -0.00744741 0.577147
N 3.47793 -0.232974 0.16487
H -1.78285 2.07795 0.0256177
H -2.84969 0.283742 -1.16315
H -2.72198 -0.541375 0.393246
H -0.37264 0.618376 -1.17788
H -0.873022 -1.07734 -1.2702
H -0.484482 -1.10456 1.18733
H 1.40642 -1.50358 -0.474749
H 1.96382 0.837525 1.18553
H 4.09837 0.505409 0.488321

16
O -2.30972 1.41814 0.497288
C -2.24786 0.216274 -0.246076
C -0.831119 -0.199766 -0.598801
N -0.0277945 -0.433365 0.592268
N 1.26026 -0.874361 0.320761
C 2.29392 -0.00948604 0.581184
N 3.4685 -0.22673 0.147632
H -1.77819 2.075 0.0297655
H -2.83454 0.296536 -1.17523
H -2.73176 -0.543266 0.376916
H -0.363709 0.613459 -1.16955
H -0.866682 -1.08287 -1.26111
H -0.489798 -1.10371 1.19861
H 1.40095 -1.49064 -0.479243
H 1.96344 0.833685 1.19421
H 4.09409 0.511101 0.466306

16
O -2.30973 1.41724 0.500038
C -2.24922 0.21845 -0.246511
C -0.832842 -0.200371 -0.599558
N -0.0282033 -0.436403 0.590619
N 1.26197 -0.869615 0.317149
C 2.29604 -0.00821336 0.582692
N 3.4679 -0.223733 0.1418
H -1.78915 2.07749 0.0247755
H -2.83363 0.305016 -1.17668
H -2.73235 -0.543463 0.374488
H -0.362449 0.612712 -1.16814
H -0.872297 -1.08611 -1.25895
H -0.48652 -1.10754 1.19812
H 1.40715 -1.49725 -0.471843
H 1.96765 0.833128 1.2004
H 4.09567 0.508658 0.46653

16
O -2.30901 1.41361 0.500167
C -2.24662 0.220195 -0.252935
C -0.827822 -0.199747 -0.596039
N -0.0287638 -0.435861 0.599945
N 1.26155 -0.883204 0.333995
C 2.2915 -0.010533 0.582527
N 3.45877 -0.212904 0.121523
H -1.78015 2.07259 0.032633
H -2.82228 0.313361 -1.1882
H -2.73444 -0.546781 0.358934
H -0.355049 0.613092 -1.16248
H -0.866197 -1.08872 -1.25228
H -0.493941 -1.10003 1.20848
H 1.40065 -1.49772 -0.470014
H 1.96734 0.822479 1.21368
H 4.08447 0.520175 0.445001

16
O -2.30917 1.41088 0.499802
C -2.24139 0.220792 -0.260392
C -0.822448 -0.19809 -0.597965
N -0.0287747 -0.43734 0.600873
N 1.25892 -0.893639 0.348154
C 2.28669 -0.0129749 0.579995
N 3.44735 -0.199262 0.0983762
H -1.77289 2.07255 0.0444039
H -2.818 0.316846 -1.19436
H -2.72584 -0.549475 0.346028
H -0.34936 0.615692 -1.16196
H -0.865796 -1.08437 -1.25553
H -0.503756 -1.08833 1.21652
H 1.40131 -1.51453 -0.447733
H 1.97158 0.804429 1.23475
H 4.07157 0.536822 0.423965

16
O -2.30818 1.40598 0.501504
C -2.2341 0.223062 -0.270028
C -0.811806 -0.201439 -0.589856
N -0.0307246 -0.437892 0.615875
N 1.25476 -0.907461 0.372707
C 2.28137 -0.0185906 0.58668
N 3.42975 -0.18315 0.0630401
H -1.76951 2.07317 0.0605216
H -2.79522 0.333052 -1.21441
H -2.73886 -0.551047 0.318286
H -0.332697 0.607471 -1.15676
H -0.853285 -1.08951 -1.24559
H -0.512941 -1.08582 1.22877
H 1.39084 -1.51279 -0.435948
H 1.9764 0.788599 1.25956
H 4.05421 0.556363 0.38058

16
O -2.31067 1.40551 0.501679
C -2.23164 0.224797 -0.271472
C -0.808894 -0.200866 -0.591779
N -0.0332309 -0.436946 0.617376
N 1.25326 -0.906609 0.378448
C 2.2815 -0.0206264 0.593745
N 3.42098 -0.180031 0.0555191
H -1.76991 2.07741 0.0705128
H -2.79077 0.332959 -1.21567
H -2.73965 -0.549305 0.314506
H -0.325767 0.603097 -1.16283
H -0.846732 -1.08938 -1.24849
H -0.518511 -1.08901 1.22378
H 1.39106 -1.51952 -0.422765
H 1.98338 0.785736 1.26941
H 4.0456 0.56279 0.36296

16
O -2.31195 1.40177 0.502412
C -2.22786 0.226049 -0.277834
C -0.803334 -0.200792 -0.590186
N -0.0354659 -0.437766 0.624686
N 1.25076 -0.916521 0.394947
C 2.27708 -0.0232483 0.597108
N 3.40741 -0.169762 0.0343158
H -1.76084 2.07484 0.082078
H -2.77789 0.340285 -1.2257
H -2.74119 -0.550675 0.299367
H -0.314977 0.600919 -1.15953
H -0.837688 -1.09051 -1.24588
H -0.529357 -1.08301 1.23186
H 1.38715 -1.52283 -0.413078
H 1.98558 0.775233 1.2868
H 4.03258 0.57602 0.333551

16
O -2.31139 1.40023 0.505389
C -2.22731 0.227423 -0.280124
C -0.8021 -0.201363 -0.588735
N -0.0361218 -0.440197 0.627315
N 1.25012 -0.916474 0.398211
C 2.27573 -0.0220769 0.596723
N 3.40131 -0.165863 0.0265024
H -1.76394 2.07332 0.0826264
H -2.7712 0.348213 -1.23073
H -2.74411 -0.549872 0.292641
H -0.309615 0.598898 -1.15556
H -0.834079 -1.09203 -1.24323
H -0.53212 -1.08311 1.23417
H 1.38893 -1.52788 -0.406991
H 1.98774 0.770189 1.29576
H 4.02814 0.580585 0.320957

16
O -2.31281 1.39845 0.504911
C -2.22525 0.227594 -0.282614
C -0.798952 -0.201815 -0.586337
N -0.0365966 -0.440384 0.630521
N 1.24898 -0.919146 0.402608
C 2.27349 -0.0230303 0.597219
N 3.39653 -0.162784 0.0211897
H -1.76106 2.07193 0.0869227
H -2.76547 0.351609 -1.23505
H -2.74647 -0.548399 0.28758
H -0.304154 0.598469 -1.15177
H -0.829804 -1.09196 -1.24129
H -0.534198 -1.08254 1.23652
H 1.38621 -1.52994 -0.40352
H 1.98681 0.764999 1.29878
H 4.02275 0.586961 0.309259

16
O -2.31282 1.39722 0.503817
C -2.22293 0.228708 -0.285615
C -0.796185 -0.201598 -0.584266
N -0.038938 -0.442784 0.635007
N 1.24686 -0.919786 0.407079
C 2.27077 -0.0222197 0.597156
N 3.39196 -0.160763 0.0138882
H -1.75992 2.07173 0.0914464
H -2.76044 0.356265 -1.23912
H -2.74713 -0.54811 0.280997
H -0.297083 0.598838 -1.14611
H -0.826974 -1.09125 -1.24007
H -0.538093 -1.08774 1.23717
H 1.38688 -1.53488 -0.394318
H 1.98763 0.763732 1.30334
H 4.0164 0.592644 0.294532

16
O -2.31426 1.39996 0.499256
C -2.22282 0.228726 -0.285227
C -0.795966 -0.198748 -0.583246
N -0.0412573 -0.445961 0.636363
N 1.24587 -0.919064 0.405724
C 2.26862 -0.0194369 0.592824
N 3.39437 -0.168351 0.0247544
H -1.75078 2.06976 0.0940991
H -2.76357 0.349628 -1.23729
H -2.74184 -0.547987 0.285532
H -0.294721 0.604819 -1.13807
H -0.824797 -1.08599 -1.24224
H -0.540141 -1.09736 1.23263
H 1.38569 -1.53702 -0.393691
H 1.98183 0.77389 1.28976
H 4.01376 0.593145 0.293731

16
O -2.31586 1.4009 0.498737
C -2.2196 0.231363 -0.290649
C -0.790229 -0.197813 -0.576821
N -0.0444816 -0.453603 0.647049
N 1.24338 -0.926544 0.419698
C 2.26284 -0.0200905 0.593661
N 3.38313 -0.163269 0.0103743
H -1.73894 2.06707 0.104113
H -2.75002 0.355507 -1.2497
H -2.74464 -0.549803 0.270635
H -0.280819 0.606422 -1.12271
H -0.814729 -1.08231 -1.23944
H -0.547659 -1.10601 1.23733
H 1.37988 -1.54266 -0.382562
H 1.97735 0.775076 1.29063
H 4.00039 0.605764 0.264586

16
O -2.31195 1.40293 0.498252
C -2.21817 0.232778 -0.290777
C -0.789102 -0.196351 -0.572345
N -0.0481122 -0.464467 0.651733
N 1.24197 -0.926845 0.424482
C 2.2583 -0.0185905 0.591516
N 3.3771 -0.160799 0.00451411
H -1.73015 2.06358 0.102551
H -2.74449 0.359689 -1.2507
H -2.74476 -0.550473 0.264853
H -0.276511 0.615878 -1.10339
H -0.807778 -1.07077 -1.24765
H -0.548978 -1.12282 1.23579
H 1.38207 -1.56036 -0.363467
H 1.96974 0.786326 1.27415
H 3.99081 0.610298 0.255417

16
O -2.3115 1.40108 0.496149
C -2.2103 0.236289 -0.298998
C -0.778218 -0.196122 -0.561094
N -0.0533978 -0.478431 0.669464
N 1.23717 -0.942176 0.449907
C 2.24758 -0.0184446 0.586951
N 3.35397 -0.147175 -0.0246987
H -1.71701 2.06207 0.118453
H -2.71826 0.375073 -1.26763
H -2.75394 -0.548442 0.239807
H -0.257859 0.619972 -1.07928
H -0.78826 -1.06152 -1.24798
H -0.56202 -1.14025 1.2435
H 1.38096 -1.58096 -0.334266
H 1.96666 0.785812 1.274
H 3.96442 0.633236 0.210643

16
O -2.31282 1.40197 0.496206
C -2.21069 0.236639 -0.297346
C -0.779004 -0.197154 -0.560691
N -0.0515737 -0.480593 0.667458
N 1.24082 -0.943397 0.448399
C 2.24868 -0.0168316 0.583766
N 3.35582 -0.147621 -0.0224765
H -1.72406 2.06585 0.116756
H -2.71811 0.374565 -1.26575
H -2.75629 -0.543764 0.243752
H -0.26194 0.619285 -1.08088
H -0.791527 -1.06101 -1.2489
H -0.559494 -1.14467 1.2409
H 1.38633 -1.58244 -0.334875
H 1.96656 0.790563 1.2669
H 3.9673 0.628622 0.221713

16
O -2.3134 1.40123 0.496542
C -2.20806 0.238133 -0.30019
C -0.775625 -0.197759 -0.557833
N -0.05362 -0.487139 0.672687
N 1.241 -0.947559 0.457422
C 2.24474 -0.0153461 0.583612
N 3.3483 -0.144493 -0.0314755
H -1.72026 2.06493 0.122459
H -2.70921 0.37927 -1.27136
H -2.75876 -0.540682 0.237173
H -0.254228 0.620726 -1.07139
H -0.786513 -1.05939 -1.24947
H -0.565958 -1.15258 1.24065
H 1.38767 -1.58727 -0.324671
H 1.96329 0.79431 1.26418
H 3.96063 0.633626 0.206601

16
O -2.3109 1.40151 0.497878
C -2.20871 0.23744 -0.297773
C -0.776832 -0.197876 -0.559213
N -0.0534065 -0.486347 0.670156
N 1.24112 -0.946298 0.454626
C 2.24521 -0.014902 0.582754
N 3.35213 -0.147264 -0.0255123
H -1.72033 2.06411 0.119605
H -2.71233 0.377132 -1.26811
H -2.75881 -0.540353 0.242696
H -0.257206 0.621623 -1.07236
H -0.786867 -1.05997 -1.25059
H -0.565827 -1.15213 1.23622
H 1.38889 -1.58479 -0.327259
H 1.95941 0.79792 1.25783
H 3.96447 0.630199 0.213977

16
O -2.31041 1.40262 0.497632
C -2.20809 0.237728 -0.297095
C -0.775976 -0.196347 -0.560363
N -0.053661 -0.488557 0.668346
N 1.24065 -0.948027 0.45496
C 2.24364 -0.0142927 0.581106
N 3.35281 -0.147465 -0.0227857
H -1.71688 2.06495 0.122063
H -2.71373 0.374647 -1.26667
H -2.75526 -0.539986 0.246175
H -0.255994 0.624772 -1.07074
H -0.786727 -1.05658 -1.25349
H -0.567791 -1.15476 1.23255
H 1.39093 -1.59225 -0.32215
H 1.95365 0.80136 1.25095
H 3.96285 0.63219 0.214436

16
O -2.30727 1.4022 0.49964
C -2.20648 0.238251 -0.297005
C -0.774834 -0.196761 -0.560955
N -0.0537312 -0.490024 0.668015
N 1.24091 -0.949644 0.456381
C 2.24209 -0.0141166 0.580626
N 3.35187 -0.145889 -0.0234718
H -1.71792 2.06647 0.123216
H -2.71252 0.377428 -1.26657
H -2.75531 -0.539665 0.245506
H -0.255223 0.624414 -1.07144
H -0.785754 -1.05629 -1.25491
H -0.568891 -1.1557 1.23267
H 1.39184 -1.59719 -0.318644
H 1.94978 0.801469 1.24943
H 3.96143 0.635052 0.212426

16
O -2.30492 1.40212 0.502263
C -2.20575 0.238734 -0.295211
C -0.775622 -0.197737 -0.562729
N -0.0534396 -0.491131 0.666133
N 1.24174 -0.949153 0.45397
C 2.24143 -0.0134113 0.579692
N 3.35491 -0.148759 -0.0165627
H -1.71858 2.06817 0.121825
H -2.71503 0.378686 -1.26272
H -2.75277 -0.539303 0.248469
H -0.256876 0.622859 -1.07541
H -0.78767 -1.05736 -1.25704
H -0.567757 -1.15618 1.23216
H 1.39384 -1.59655 -0.321059
H 1.94356 0.805035 1.24317
H 3.96292 0.633982 0.217986

16
O -2.3019 1.40104 0.506307
C -2.20473 0.240594 -0.295722
C -0.774721 -0.198882 -0.561612
N -0.0534882 -0.494257 0.667407
N 1.24191 -0.951543 0.456781
C 2.2399 -0.0121668 0.578962
N 3.35345 -0.147244 -0.0170543
H -1.72069 2.0691 0.121677
H -2.7118 0.386494 -1.26333
H -2.75339 -0.538589 0.243633
H -0.25345 0.619671 -1.07525
H -0.787779 -1.05871 -1.25525
H -0.567502 -1.16055 1.2319
H 1.39443 -1.59928 -0.317537
H 1.94011 0.807204 1.24006
H 3.95964 0.637138 0.213952

16
O -2.2988 1.40025 0.509035
C -2.20284 0.241881 -0.296183
C -0.773369 -0.199696 -0.562041
N -0.0544893 -0.497029 0.667706
N 1.24149 -0.953218 0.458792
C 2.23799 -0.0123819 0.57887
N 3.35143 -0.146441 -0.0170689
H -1.72071 2.07054 0.123991
H -2.70913 0.391268 -1.26346
H -2.75301 -0.537879 0.240989
H -0.249583 0.617928 -1.07408
H -0.788059 -1.05933 -1.25591
H -0.570052 -1.16406 1.23054
H 1.39621 -1.60397 -0.311873
H 1.93829 0.809869 1.2362
H 3.95463 0.642277 0.209418

16
O -2.29706 1.39942 0.510718
C -2.20207 0.242218 -0.296063
C -0.773381 -0.200537 -0.563113
N -0.05408 -0.49686 0.666505
N 1.24196 -0.954239 0.45902
C 2.23833 -0.0129798 0.579056
N 3.35171 -0.145179 -0.0173421
H -1.7212 2.07102 0.12446
H -2.70887 0.392552 -1.263
H -2.75275 -0.538093 0.24008
H -0.248834 0.616067 -1.07595
H -0.791079 -1.06071 -1.25639
H -0.57033 -1.16084 1.23168
H 1.39661 -1.60422 -0.312208
H 1.93784 0.808601 1.23686
H 3.9532 0.643789 0.210609

16
O -2.29663 1.3994 0.510796
C -2.20196 0.242253 -0.296012
C -0.77339 -0.200924 -0.562765
N -0.0540444 -0.497268 0.666819
N 1.24182 -0.954278 0.459087
C 2.23814 -0.0127075 0.57899
N 3.35167 -0.145552 -0.0167145
H -1.72033 2.07055 0.124729
H -2.7084 0.392921 -1.26321
H -2.75309 -0.538008 0.239564
H -0.248321 0.615522 -1.07555
H -0.791634 -1.06107 -1.25618
H -0.57043 -1.16111 1.23206
H 1.39618 -1.60354 -0.313363
H 1.93765 0.809619 1.2361
H 3.95276 0.644194 0.21056

16
O -2.29667 1.39925 0.511166
C -2.20222 0.242142 -0.295766
C -0.773876 -0.201711 -0.563164
N -0.0538369 -0.496164 0.666269
N 1.24182 -0.953792 0.458113
C 2.23848 -0.0127722 0.579478
N 3.35248 -0.14499 -0.0160001
H -1.71967 2.07015 0.12517
H -2.70833 0.393695 -1.26282
H -2.75392 -0.537658 0.239729
H -0.249176 0.613294 -1.07816
H -0.79321 -1.06307 -1.25495
H -0.570056 -1.15985 1.23193
H 1.39583 -1.60193 -0.315718
H 1.93858 0.809105 1.23705
H 3.95377 0.644305 0.212595

16
O -2.29341 1.39977 0.512577
C -2.20205 0.243153 -0.295556
C -0.775116 -0.204382 -0.563343
N -0.055137 -0.498995 0.666029
N 1.24181 -0.952677 0.456472
C 2.23715 -0.0100023 0.577104
N 3.35334 -0.141996 -0.0146104
H -1.7114 2.06817 0.129526
H -2.70531 0.398067 -1.26332
H -2.75754 -0.535579 0.238497
H -0.24864 0.60903 -1.07935
H -0.797178 -1.06617 -1.25478
H -0.56965 -1.16429 1.23108
H 1.39565 -1.60536 -0.313149
H 1.93466 0.813024 1.23269
H 3.95281 0.648245 0.215068

16
O -2.28879 1.39906 0.514616
C -2.20188 0.244573 -0.296917
C -0.776757 -0.208129 -0.56494
N -0.0562101 -0.499614 0.664974
N 1.24129 -0.951331 0.457569
C 2.235 -0.00745256 0.57674
N 3.35113 -0.138181 -0.0154154
H -1.69995 2.06459 0.137236
H -2.70394 0.402847 -1.26491
H -2.75964 -0.533094 0.235069
H -0.248294 0.60139 -1.08512
H -0.802246 -1.07194 -1.25386
H -0.569808 -1.16463 1.23174
H 1.39686 -1.60449 -0.310999
H 1.93346 0.813536 1.23471
H 3.94979 0.652867 0.214432

16
O -2.28561 1.39898 0.516252
C -2.20029 0.246864 -0.298819
C -0.775949 -0.210639 -0.564286
N -0.057017 -0.502806 0.666377
N 1.24126 -0.953197 0.460509
C 2.23239 -0.00613824 0.577072
N 3.34674 -0.134225 -0.0184871
H -1.69136 2.06281 0.144278
H -2.70044 0.409614 -1.26792
H -2.76296 -0.531 0.229162
H -0.245363 0.596194 -1.08599
H -0.803495 -1.07599 -1.25058
H -0.57079 -1.168 1.23257
H 1.39979 -1.60653 -0.307669
H 1.92921 0.815691 1.23357
H 3.94389 0.658378 0.20888

16
O -2.28401 1.39902 0.515769
C -2.20045 0.246737 -0.299184
C -0.776657 -0.211872 -0.565015
N -0.057301 -0.502599 0.665781
N 1.24128 -0.953091 0.46004
C 2.23208 -0.00554365 0.577674
N 3.34637 -0.132847 -0.0180487
H -1.68601 2.06112 0.146891
H -2.70096 0.410547 -1.26732
H -2.76379 -0.530122 0.228598
H -0.245991 0.59443 -1.08754
H -0.804873 -1.07838 -1.25007
H -0.570848 -1.1672 1.23257
H 1.39987 -1.60609 -0.308398
H 1.92763 0.816205 1.23371
H 3.94366 0.659695 0.209466

16
O -2.28411 1.3994 0.515699
C -2.20053 0.24703 -0.299282
C -0.776805 -0.212616 -0.564618
N -0.0570648 -0.503032 0.666094
N 1.2414 -0.953168 0.459767
C 2.232 -0.00548882 0.577533
N 3.34625 -0.132124 -0.0183996
H -1.68561 2.0613 0.147584
H -2.7 0.411671 -1.26784
H -2.76496 -0.529665 0.227598
H -0.245557 0.593096 -1.08758
H -0.805406 -1.0795 -1.24933
H -0.570351 -1.16743 1.2333
H 1.40001 -1.60572 -0.308888
H 1.92744 0.815699 1.23406
H 3.9433 0.660554 0.209225

16
O -2.28408 1.39982 0.515508
C -2.20038 0.247251 -0.29922
C -0.776755 -0.212645 -0.564696
N -0.0571577 -0.503551 0.665983
N 1.24144 -0.953616 0.460179
C 2.23162 -0.00541345 0.577344
N 3.346 -0.131896 -0.0184866
H -1.68475 2.06117 0.147907
H -2.69993 0.411789 -1.26765
H -2.76483 -0.529456 0.227603
H -0.245341 0.593087 -1.08726
H -0.805278 -1.07928 -1.2497
H -0.570482 -1.16803 1.23309
H 1.40037 -1.60647 -0.30819
H 1.92695 0.816 1.23369
H 3.9426 0.661255 0.208815

16
O -2.28368 1.40014 0.51519
C -2.20049 0.24724 -0.299101
C -0.77689 -0.212921 -0.565004
N -0.057294 -0.503884 0.665608
N 1.24153 -0.95355 0.460165
C 2.2315 -0.00521558 0.577689
N 3.34586 -0.13162 -0.0182022
H -1.6836 2.06082 0.147622
H -2.70054 0.411936 -1.2674
H -2.76475 -0.529143 0.228514
H -0.245207 0.592727 -1.08746
H -0.805745 -1.07934 -1.25028
H -0.570549 -1.16829 1.23271
H 1.40085 -1.6065 -0.308043
H 1.92681 0.815815 1.23439
H 3.9422 0.661785 0.208533

16
O -2.2825 1.40103 0.514746
C -2.20057 0.247421 -0.29876
C -0.777163 -0.213269 -0.565157
N -0.057164 -0.504741 0.665347
N 1.24172 -0.954112 0.459868
C 2.23159 -0.00548809 0.578132
N 3.3463 -0.131013 -0.0172673
H -1.68239 2.06095 0.14609
H -2.70157 0.411479 -1.26658
H -2.76494 -0.528206 0.230212
H -0.245803 0.592323 -1.08809
H -0.806605 -1.07937 -1.25092
H -0.570361 -1.1695 1.23218
H 1.40122 -1.60606 -0.308977
H 1.92635 0.815597 1.23466
H 3.94187 0.662963 0.209439

16
O -2.28059 1.40306 0.513876
C -2.20099 0.248193 -0.297908
C -0.778376 -0.214355 -0.565124
N -0.0571593 -0.506748 0.66454
N 1.24238 -0.954279 0.45799
C 2.23162 -0.00531957 0.578314
N 3.34721 -0.129313 -0.0158801
H -1.68 2.06162 0.143414
H -2.70251 0.411102 -1.26587
H -2.76557 -0.525658 0.232853
H -0.246766 0.590979 -1.08836
H -0.80918 -1.08036 -1.25067
H -0.569144 -1.17268 1.2312
H 1.40257 -1.60636 -0.310791
H 1.92492 0.814566 1.23549
H 3.94156 0.665572 0.21185
