
12
C -36.6993 41.9842 -36.062
C -36.0634 41.9385 -34.8263
C -36.8227 41.7572 -33.6613
C -38.1951 41.5377 -33.6633
C -38.8441 41.5639 -34.8889
C -38.0857 41.753 -36.0721
H -36.0762 42.1672 -36.9593
H -34.9841 41.9593 -34.6426
H -36.3414 41.7529 -32.685
H -38.7854 41.3099 -32.768
H -39.9226 41.4096 -34.9207
H -38.6311 41.7747 -37.0218

12
C -36.7049 41.9752 -36.0518
C -36.0708 41.93 -34.7879
C -36.8199 41.7507 -33.647
C -38.2027 41.5371 -33.6733
C -38.832 41.5612 -34.9126
C -38.0923 41.7671 -36.0818
H -36.0941 42.1633 -36.9565
H -34.98 41.9698 -34.6633
H -36.329 41.7539 -32.684
H -38.7765 41.3164 -32.7659
H -39.9226 41.4101 -34.9278
H -38.6263 41.7731 -37.0193

12
C -36.7032 41.9668 -36.0315
C -36.0685 41.9238 -34.7822
C -36.8307 41.7405 -33.618
C -38.2045 41.5364 -33.6826
C -38.8328 41.5565 -34.9245
C -38.0911 41.7809 -36.0891
H -36.1169 42.1574 -36.9472
H -34.9816 41.982 -34.6845
H -36.3149 41.7544 -32.6782
H -38.7669 41.3248 -32.7679
H -39.9156 41.4116 -34.9389
H -38.6244 41.7728 -37.0267

12
C -36.7014 41.9634 -36.0214
C -36.074 41.9175 -34.7778
C -36.8274 41.736 -33.6191
C -38.205 41.534 -33.6825
C -38.8356 41.5547 -34.9262
C -38.09 41.7862 -36.0845
H -36.1342 42.1514 -36.9348
H -34.9839 41.9923 -34.6987
H -36.3037 41.7531 -32.6611
H -38.7621 41.3322 -32.7725
H -39.9104 41.4124 -34.9516
H -38.6233 41.775 -37.0409

12
C -36.714 41.9609 -36.0176
C -36.0692 41.9126 -34.7769
C -36.8146 41.7323 -33.6134
C -38.1972 41.532 -33.6853
C -38.8316 41.556 -34.9172
C -38.0954 41.7846 -36.0861
H -36.1454 42.145 -36.9238
H -34.9912 42.0036 -34.7105
H -36.3011 41.7495 -32.6486
H -38.764 41.3393 -32.7736
H -39.9128 41.4118 -34.9689
H -38.6146 41.7805 -37.0495

12
C -36.7204 41.9594 -36.0129
C -36.0716 41.9106 -34.7786
C -36.8079 41.7298 -33.6091
C -38.1883 41.531 -33.6795
C -38.8335 41.5573 -34.9195
C -38.1019 41.7813 -36.0864
H -36.1488 42.1417 -36.9209
H -34.991 42.0107 -34.7164
H -36.3017 41.7465 -32.6437
H -38.7652 41.3437 -32.7748
H -39.9126 41.4114 -34.9775
H -38.6082 41.7845 -37.0519

12
C -36.7201 41.9587 -36.0137
C -36.0738 41.9118 -34.7778
C -36.8084 41.7275 -33.6065
C -38.1886 41.5312 -33.6815
C -38.8342 41.5572 -34.9178
C -38.104 41.7776 -36.085
H -36.1486 42.1396 -36.9215
H -34.9878 42.0157 -34.72
H -36.3025 41.743 -32.6422
H -38.7651 41.3467 -32.774
H -39.912 41.411 -34.9787
H -38.6061 41.7879 -37.0525

12
C -36.7222 41.9569 -36.0146
C -36.0722 41.9145 -34.7759
C -36.8102 41.7245 -33.6055
C -38.19 41.5312 -33.6806
C -38.8363 41.5567 -34.9174
C -38.1023 41.7733 -36.0842
H -36.1471 42.1367 -36.9236
H -34.9865 42.0227 -34.7249
H -36.3038 41.7372 -32.6399
H -38.7644 41.3513 -32.7734
H -39.9119 41.4103 -34.9787
H -38.6042 41.7926 -37.0526

12
C -36.7193 41.9548 -36.0124
C -36.0708 41.9179 -34.7765
C -36.8098 41.722 -33.6067
C -38.1927 41.5313 -33.6797
C -38.8362 41.5558 -34.9175
C -38.1015 41.7694 -36.0854
H -36.1458 42.1327 -36.9256
H -34.9876 42.0314 -34.7296
H -36.3063 41.7293 -32.6379
H -38.7645 41.3568 -32.7714
H -39.9144 41.409 -34.9774
H -38.6023 41.7977 -37.0512

12
C -36.7167 41.9532 -36.0133
C -36.0704 41.9198 -34.7767
C -36.8098 41.7207 -33.6079
C -38.1906 41.532 -33.6801
C -38.8367 41.5544 -34.9188
C -38.0989 41.768 -36.0848
H -36.1455 42.1287 -36.9252
H -34.9887 42.0392 -34.7321
H -36.3092 41.7219 -32.638
H -38.7661 41.3611 -32.7678
H -39.9165 41.408 -34.9756
H -38.6019 41.801 -37.0508

12
C -36.7166 41.9524 -36.0141
C -36.0709 41.9199 -34.7774
C -36.8082 41.7208 -33.608
C -38.1915 41.5318 -33.6798
C -38.8371 41.5534 -34.9186
C -38.0978 41.769 -36.0844
H -36.1449 42.1263 -36.9247
H -34.9888 42.0438 -34.7317
H -36.311 41.7176 -32.6395
H -38.766 41.3637 -32.7677
H -39.9162 41.4076 -34.9746
H -38.602 41.8017 -37.0507

12
C -36.717 41.9511 -36.015
C -36.0705 41.9193 -34.7783
C -36.81 41.7208 -33.6107
C -38.1911 41.5315 -33.6797
C -38.8359 41.5523 -34.9178
C -38.0999 41.7719 -36.0837
H -36.1429 42.1217 -36.9244
H -34.9895 42.0526 -34.7291
H -36.3123 41.7094 -32.6411
H -38.7652 41.3686 -32.7686
H -39.9148 41.4071 -34.9728
H -38.6019 41.8018 -37.0499

12
C -36.7176 41.9512 -36.014
C -36.0703 41.9196 -34.7782
C -36.8096 41.7198 -33.6106
C -38.191 41.5316 -33.6809
C -38.8358 41.5533 -34.9185
C -38.1003 41.7722 -36.0831
H -36.1423 42.1199 -36.9251
H -34.9905 42.0555 -34.7276
H -36.3115 41.7069 -32.6417
H -38.7652 41.3698 -32.7685
H -39.9141 41.4069 -34.9726
H -38.6028 41.8013 -37.0504

12
C -36.7176 41.9518 -36.0139
C -36.0706 41.9204 -34.7774
C -36.8092 41.7179 -33.6103
C -38.1907 41.532 -33.6817
C -38.8367 41.5552 -34.9185
C -38.1005 41.7725 -36.0849
H -36.1424 42.1171 -36.9252
H -34.9916 42.0592 -34.7253
H -36.3095 41.7037 -32.6425
H -38.765 41.3713 -32.7687
H -39.9134 41.4065 -34.9726
H -38.6039 41.8003 -37.0503

12
C -36.7178 41.9522 -36.0141
C -36.0714 41.9214 -34.7774
C -36.8092 41.7166 -33.6099
C -38.1906 41.5324 -33.6814
C -38.836 41.5568 -34.9187
C -38.1 41.7724 -36.0854
H -36.1424 42.1155 -36.9252
H -34.9918 42.0615 -34.7235
H -36.3079 41.7015 -32.6428
H -38.7648 41.3721 -32.7692
H -39.9143 41.4063 -34.9728
H -38.6048 41.7996 -37.0506

12
C -36.7176 41.9522 -36.015
C -36.0716 41.9232 -34.7776
C -36.8086 41.7164 -33.6103
C -38.1908 41.5331 -33.6808
C -38.8364 41.5574 -34.9185
C -38.1004 41.7716 -36.0852
H -36.1419 42.1148 -36.9258
H -34.9922 42.0625 -34.7217
H -36.3062 41.6995 -32.6431
H -38.7656 41.3716 -32.7694
H -39.9144 41.4073 -34.9731
H -38.6054 41.7984 -37.0509

12
C -36.7175 41.952 -36.0147
C -36.0722 41.9242 -34.7769
C -36.8089 41.7173 -33.6096
C -38.191 41.5334 -33.6803
C -38.8361 41.5574 -34.9182
C -38.1001 41.771 -36.0852
H -36.1423 42.1146 -36.9263
H -34.9926 42.0643 -34.7218
H -36.3041 41.6969 -32.6439
H -38.7667 41.3707 -32.7693
H -39.9146 41.41 -34.9741
H -38.6049 41.7962 -37.0509

12
C -36.7177 41.9521 -36.0149
C -36.0721 41.9246 -34.7774
C -36.8091 41.7172 -33.6097
C -38.1913 41.5331 -33.6803
C -38.8361 41.558 -34.9183
C -38.0998 41.7705 -36.085
H -36.1425 42.1147 -36.926
H -34.9928 42.0652 -34.7219
H -36.3038 41.6961 -32.6441
H -38.767 41.3702 -32.7691
H -39.9145 41.4116 -34.974
H -38.6044 41.7948 -37.0504

12
C -36.7174 41.9524 -36.0147
C -36.0721 41.925 -34.7773
C -36.8091 41.7161 -33.6101
C -38.1912 41.5328 -33.68
C -38.8362 41.5591 -34.9177
C -38.0995 41.7697 -36.0847
H -36.1425 42.1151 -36.926
H -34.9932 42.0666 -34.7222
H -36.3043 41.6953 -32.6447
H -38.7669 41.3694 -32.7694
H -39.9147 41.4141 -34.9737
H -38.6038 41.7924 -37.0506

12
C -36.7175 41.9522 -36.0147
C -36.0722 41.9251 -34.7771
C -36.8088 41.7153 -33.6102
C -38.1911 41.5327 -33.6803
C -38.8363 41.5595 -34.9179
C -38.0996 41.7696 -36.0849
H -36.1425 42.1155 -36.9259
H -34.993 42.0678 -34.7224
H -36.3046 41.6948 -32.6443
H -38.7667 41.369 -32.7693
H -39.9152 41.4158 -34.9734
H -38.6035 41.7908 -37.0508

12
C -36.7175 41.9521 -36.0148
C -36.072 41.9252 -34.7772
C -36.8088 41.7154 -33.6101
C -38.191 41.5326 -33.6804
C -38.8365 41.5595 -34.918
C -38.0997 41.7694 -36.0851
H -36.1423 42.1159 -36.9259
H -34.993 42.0679 -34.7222
H -36.3048 41.6946 -32.644
H -38.7663 41.3688 -32.7693
H -39.9155 41.4165 -34.9731
H -38.6036 41.7902 -37.0511

12
C -36.7175 41.9521 -36.0147
C -36.072 41.9252 -34.7772
C -36.8088 41.7155 -33.61
C -38.191 41.5325 -33.6805
C -38.8365 41.5595 -34.918
C -38.0997 41.7692 -36.0851
H -36.1424 42.1158 -36.9258
H -34.993 42.068 -34.7222
H -36.3048 41.6945 -32.6439
H -38.7661 41.3689 -32.7694
H -39.9155 41.4167 -34.9731
H -38.6037 41.7902 -37.0512

12
C -36.7175 41.9521 -36.0147
C -36.0721 41.9252 -34.7772
C -36.8088 41.7155 -33.6101
C -38.191 41.5326 -33.6805
C -38.8365 41.5595 -34.918
C -38.0997 41.7692 -36.0851
H -36.1424 42.1159 -36.9258
H -34.993 42.068 -34.7222
H -36.3049 41.6945 -32.644
H -38.7661 41.3688 -32.7694
H -39.9155 41.4167 -34.973
H -38.6037 41.7902 -37.0512

12
C -36.7175 41.9521 -36.0147
C -36.0721 41.9252 -34.7772
C -36.8088 41.7154 -33.6101
C -38.191 41.5326 -33.6805
C -38.8365 41.5595 -34.918
C -38.0997 41.7692 -36.0851
H -36.1424 42.1159 -36.9258
H -34.993 42.068 -34.7222
H -36.3049 41.6945 -32.644
H -38.7661 41.3688 -32.7694
H -39.9155 41.4167 -34.973
H -38.6037 41.7902 -37.0512

12
C -36.7175 41.9521 -36.0147
C -36.0721 41.9252 -34.7772
C -36.8088 41.7155 -33.6101
C -38.191 41.5326 -33.6805
C -38.8365 41.5595 -34.918
C -38.0997 41.7692 -36.0851
H -36.1424 42.1159 -36.9258
H -34.993 42.068 -34.7222
H -36.3049 41.6945 -32.644
H -38.7661 41.3688 -32.7694
H -39.9155 41.4167 -34.973
H -38.6037 41.7902 -37.0512

12
C -36.7175 41.9521 -36.0147
C -36.0721 41.9252 -34.7772
C -36.8088 41.7155 -33.6101
C -38.191 41.5326 -33.6805
C -38.8365 41.5595 -34.918
C -38.0997 41.7692 -36.0851
H -36.1424 42.1159 -36.9258
H -34.993 42.068 -34.7222
H -36.3049 41.6945 -32.644
H -38.7661 41.3688 -32.7694
H -39.9155 41.4167 -34.973
H -38.6037 41.7902 -37.0512

12
C -36.7175 41.9521 -36.0147
C -36.0721 41.9252 -34.7772
C -36.8088 41.7155 -33.6101
C -38.191 41.5326 -33.6805
C -38.8365 41.5595 -34.918
C -38.0997 41.7692 -36.0851
H -36.1424 42.1159 -36.9258
H -34.993 42.068 -34.7222
H -36.3049 41.6945 -32.644
H -38.7661 41.3688 -32.7694
H -39.9155 41.4167 -34.973
H -38.6037 41.7902 -37.0512

12
C -36.7175 41.9521 -36.0147
C -36.0721 41.9252 -34.7772
C -36.8088 41.7155 -33.6101
C -38.191 41.5326 -33.6805
C -38.8365 41.5595 -34.918
C -38.0997 41.7692 -36.0851
H -36.1424 42.1159 -36.9258
H -34.993 42.068 -34.7222
H -36.3049 41.6945 -32.644
H -38.7661 41.3688 -32.7694
H -39.9155 41.4167 -34.973
H -38.6036 41.7902 -37.0512

12
C -36.7175 41.9521 -36.0147
C -36.0721 41.9252 -34.7772
C -36.8088 41.7155 -33.6101
C -38.191 41.5326 -33.6805
C -38.8365 41.5595 -34.918
C -38.0997 41.7692 -36.0851
H -36.1424 42.1159 -36.9258
H -34.993 42.068 -34.7222
H -36.3049 41.6945 -32.644
H -38.7661 41.3688 -32.7694
H -39.9155 41.4167 -34.973
H -38.6036 41.7902 -37.0512

12
C -36.7175 41.9521 -36.0147
C -36.0721 41.9252 -34.7772
C -36.8088 41.7154 -33.6101
C -38.191 41.5326 -33.6805
C -38.8365 41.5595 -34.918
C -38.0997 41.7692 -36.0851
H -36.1424 42.1159 -36.9258
H -34.993 42.068 -34.7222
H -36.3049 41.6945 -32.644
H -38.7661 41.3688 -32.7694
H -39.9155 41.4167 -34.973
H -38.6036 41.7902 -37.0512

12
C -36.7175 41.9521 -36.0147
C -36.0721 41.9252 -34.7772
C -36.8088 41.7155 -33.6101
C -38.191 41.5326 -33.6805
C -38.8365 41.5595 -34.918
C -38.0997 41.7692 -36.0851
H -36.1424 42.1159 -36.9258
H -34.993 42.068 -34.7222
H -36.3049 41.6945 -32.644
H -38.7661 41.3688 -32.7694
H -39.9155 41.4167 -34.973
H -38.6036 41.7902 -37.0512

12
C -36.7175 41.9521 -36.0147
C -36.0721 41.9252 -34.7772
C -36.8088 41.7155 -33.6101
C -38.191 41.5326 -33.6805
C -38.8365 41.5595 -34.918
C -38.0997 41.7692 -36.0851
H -36.1424 42.1159 -36.9258
H -34.993 42.068 -34.7222
H -36.3049 41.6945 -32.644
H -38.7661 41.3688 -32.7694
H -39.9155 41.4167 -34.973
H -38.6036 41.7902 -37.0512

12
C -36.7175 41.9521 -36.0147
C -36.0721 41.9252 -34.7772
C -36.8088 41.7154 -33.6101
C -38.191 41.5326 -33.6805
C -38.8365 41.5595 -34.918
C -38.0997 41.7692 -36.0851
H -36.1424 42.1159 -36.9258
H -34.993 42.068 -34.7222
H -36.3049 41.6945 -32.644
H -38.7661 41.3688 -32.7694
H -39.9155 41.4167 -34.973
H -38.6036 41.7902 -37.0512

12
C -36.7175 41.9521 -36.0147
C -36.0721 41.9252 -34.7772
C -36.8088 41.7154 -33.6101
C -38.191 41.5326 -33.6805
C -38.8365 41.5595 -34.918
C -38.0997 41.7692 -36.0851
H -36.1424 42.1159 -36.9258
H -34.993 42.068 -34.7222
H -36.3049 41.6945 -32.644
H -38.7661 41.3688 -32.7694
H -39.9155 41.4167 -34.973
H -38.6036 41.7902 -37.0512

12
C -36.7175 41.9521 -36.0147
C -36.0721 41.9252 -34.7772
C -36.8088 41.7155 -33.6101
C -38.191 41.5326 -33.6805
C -38.8365 41.5595 -34.918
C -38.0997 41.7692 -36.0851
H -36.1424 42.1159 -36.9258
H -34.993 42.068 -34.7222
H -36.3049 41.6945 -32.644
H -38.7661 41.3688 -32.7694
H -39.9155 41.4167 -34.973
H -38.6036 41.7902 -37.0512

12
C -36.7175 41.9521 -36.0147
C -36.0721 41.9252 -34.7772
C -36.8088 41.7155 -33.6101
C -38.191 41.5326 -33.6805
C -38.8365 41.5595 -34.918
C -38.0997 41.7692 -36.0851
H -36.1424 42.1159 -36.9258
H -34.993 42.068 -34.7222
H -36.3049 41.6945 -32.644
H -38.7661 41.3688 -32.7694
H -39.9155 41.4167 -34.973
H -38.6036 41.7902 -37.0512

12
C -36.7175 41.9521 -36.0147
C -36.0721 41.9252 -34.7772
C -36.8088 41.7155 -33.6101
C -38.191 41.5326 -33.6805
C -38.8365 41.5595 -34.918
C -38.0997 41.7692 -36.0851
H -36.1424 42.1159 -36.9258
H -34.993 42.068 -34.7222
H -36.3049 41.6945 -32.644
H -38.7661 41.3688 -32.7694
H -39.9155 41.4167 -34.973
H -38.6036 41.7902 -37.0512

12
C -36.7175 41.9521 -36.0147
C -36.0721 41.9252 -34.7772
C -36.8088 41.7155 -33.6101
C -38.191 41.5326 -33.6805
C -38.8365 41.5595 -34.918
C -38.0997 41.7692 -36.0851
H -36.1424 42.1159 -36.9258
H -34.993 42.068 -34.7222
H -36.3049 41.6945 -32.644
H -38.7661 41.3688 -32.7694
H -39.9155 41.4167 -34.973
H -38.6036 41.7902 -37.0512

12
C -36.7175 41.9521 -36.0147
C -36.0721 41.9252 -34.7772
C -36.8088 41.7155 -33.6101
C -38.191 41.5326 -33.6805
C -38.8365 41.5595 -34.918
C -38.0997 41.7692 -36.0851
H -36.1424 42.1159 -36.9258
H -34.993 42.068 -34.7222
H -36.3049 41.6945 -32.644
H -38.7661 41.3688 -32.7694
H -39.9155 41.4167 -34.973
H -38.6036 41.7902 -37.0512

12
C -36.7175 41.9521 -36.0147
C -36.0721 41.9252 -34.7772
C -36.8088 41.7155 -33.6101
C -38.191 41.5326 -33.6805
C -38.8365 41.5595 -34.918
C -38.0997 41.7692 -36.0851
H -36.1424 42.1159 -36.9258
H -34.993 42.068 -34.7222
H -36.3049 41.6945 -32.644
H -38.7661 41.3688 -32.7694
H -39.9155 41.4167 -34.973
H -38.6036 41.7902 -37.0512

12
C -36.7175 41.9521 -36.0147
C -36.0721 41.9252 -34.7772
C -36.8088 41.7155 -33.6101
C -38.191 41.5326 -33.6805
C -38.8365 41.5595 -34.918
C -38.0997 41.7692 -36.0851
H -36.1424 42.1159 -36.9258
H -34.993 42.068 -34.7222
H -36.3049 41.6945 -32.644
H -38.7661 41.3688 -32.7694
H -39.9155 41.4167 -34.973
H -38.6036 41.7902 -37.0512

12
C -36.7175 41.9521 -36.0147
C -36.0721 41.9252 -34.7772
C -36.8088 41.7155 -33.6101
C -38.191 41.5326 -33.6805
C -38.8365 41.5595 -34.918
C -38.0997 41.7692 -36.0851
H -36.1424 42.1159 -36.9258
H -34.993 42.068 -34.7222
H -36.3049 41.6945 -32.644
H -38.7661 41.3688 -32.7694
H -39.9155 41.4167 -34.973
H -38.6036 41.7902 -37.0512

12
C -36.7175 41.9521 -36.0147
C -36.0721 41.9252 -34.7772
C -36.8088 41.7154 -33.6101
C -38.191 41.5326 -33.6805
C -38.8365 41.5595 -34.918
C -38.0997 41.7692 -36.0851
H -36.1424 42.1159 -36.9258
H -34.993 42.068 -34.7222
H -36.3049 41.6945 -32.644
H -38.7661 41.3688 -32.7694
H -39.9155 41.4167 -34.973
H -38.6036 41.7902 -37.0512

12
C -36.7175 41.9521 -36.0147
C -36.0721 41.9252 -34.7772
C -36.8088 41.7154 -33.6101
C -38.191 41.5326 -33.6805
C -38.8365 41.5595 -34.918
C -38.0997 41.7692 -36.0851
H -36.1424 42.1159 -36.9258
H -34.993 42.068 -34.7222
H -36.3049 41.6945 -32.644
H -38.7661 41.3688 -32.7694
H -39.9155 41.4167 -34.973
H -38.6036 41.7902 -37.0512

12
C -36.7175 41.9521 -36.0147
C -36.0721 41.9252 -34.7772
C -36.8088 41.7155 -33.6101
C -38.191 41.5326 -33.6805
C -38.8365 41.5595 -34.918
C -38.0997 41.7692 -36.0851
H -36.1424 42.1159 -36.9258
H -34.993 42.068 -34.7222
H -36.3049 41.6945 -32.644
H -38.7661 41.3688 -32.7694
H -39.9155 41.4167 -34.973
H -38.6036 41.7902 -37.0512
