
15
C -1.76943 -0.572948 0.216361
C -1.61763 0.909899 0.251268
C -0.538998 0.0629268 -0.302091
N 0.650621 -0.0780173 0.517597
C 1.83628 0.561674 -0.0214746
C 1.6831 -0.921786 -0.0548537
H -2.4716 -0.958066 -0.525812
H -1.66884 -1.08108 1.19218
H -1.42086 1.34129 1.24906
H -2.22363 1.46324 -0.468993
H -0.396361 0.0748302 -1.41696
H 1.68706 1.06708 -0.981244
H 2.52952 0.932336 0.717084
H 2.28245 -1.45874 0.663418
H 1.43831 -1.34265 -1.03554

15
C -1.77372 -0.576989 0.221795
C -1.62107 0.914486 0.256894
C -0.526422 0.0618441 -0.309969
N 0.649019 -0.0773976 0.497049
C 1.82808 0.555234 -0.0234661
C 1.67642 -0.913707 -0.0565186
H -2.46647 -0.965341 -0.510703
H -1.67545 -1.08286 1.17106
H -1.42687 1.34536 1.2281
H -2.21722 1.46863 -0.453584
H -0.391325 0.0736747 -1.39104
H 1.69587 1.07224 -0.968433
H 2.5265 0.945552 0.708042
H 2.27685 -1.47064 0.653782
H 1.4458 -1.35008 -1.02301

15
C -1.76802 -0.568207 0.22035
C -1.61726 0.90482 0.254998
C -0.525096 0.0617034 -0.309523
N 0.631632 -0.075768 0.503763
C 1.83133 0.551404 -0.0285521
C 1.6804 -0.910372 -0.0614441
H -2.46857 -0.978937 -0.501337
H -1.68202 -1.094 1.16208
H -1.43101 1.35802 1.21971
H -2.21659 1.48194 -0.443584
H -0.385675 0.0728064 -1.38003
H 1.70611 1.08468 -0.964596
H 2.52233 0.963312 0.70149
H 2.2692 -1.48686 0.646436
H 1.45325 -1.36454 -1.01977

15
C -1.77176 -0.576479 0.214824
C -1.61921 0.913959 0.249902
C -0.530356 0.0621265 -0.304848
N 0.641842 -0.0771752 0.519488
C 1.83178 0.550019 -0.0275395
C 1.68112 -0.909152 -0.0603891
H -2.47063 -0.997632 -0.488757
H -1.68919 -1.11259 1.15492
H -1.43424 1.37798 1.21346
H -2.21493 1.5001 -0.430133
H -0.376533 0.0719077 -1.38354
H 1.71997 1.10547 -0.965705
H 2.51388 0.989274 0.69319
H 2.25571 -1.51015 0.636977
H 1.46255 -1.38766 -1.02184

15
C -1.77309 -0.579572 0.218619
C -1.61992 0.917098 0.253821
C -0.52852 0.0619291 -0.304348
N 0.645234 -0.0775425 0.520225
C 1.83336 0.558257 -0.0296309
C 1.681 -0.917443 -0.0628505
H -2.4742 -1.00564 -0.489246
H -1.69077 -1.11856 1.1532
H -1.43459 1.38423 1.21204
H -2.21681 1.50868 -0.43021
H -0.372676 0.0715222 -1.38477
H 1.72361 1.10943 -0.963779
H 2.51097 0.997978 0.69183
H 2.25112 -1.518 0.635222
H 1.46528 -1.39236 -1.02011

15
C -1.77458 -0.578056 0.219728
C -1.62168 0.915871 0.254865
C -0.527415 0.0617933 -0.303155
N 0.649121 -0.0777933 0.513518
C 1.83319 0.55776 -0.0299191
C 1.68094 -0.916911 -0.0631177
H -2.47634 -1.01015 -0.491114
H -1.69056 -1.123 1.15527
H -1.43349 1.38844 1.21431
H -2.218 1.51362 -0.431842
H -0.36999 0.0712174 -1.38427
H 1.7241 1.11068 -0.963706
H 2.51012 1.00384 0.693206
H 2.24911 -1.52362 0.636329
H 1.46549 -1.39369 -1.0201

15
C -1.77715 -0.579181 0.219741
C -1.62396 0.917491 0.254945
C -0.527865 0.0618464 -0.303374
N 0.647945 -0.0775647 0.508661
C 1.83659 0.557774 -0.0295261
C 1.68427 -0.91764 -0.0627438
H -2.47571 -1.01147 -0.491327
H -1.68989 -1.12501 1.15669
H -1.43244 1.3902 1.21581
H -2.21712 1.51481 -0.431985
H -0.368593 0.0710273 -1.38295
H 1.72355 1.1105 -0.9645
H 2.50852 1.00713 0.694239
H 2.24688 -1.52656 0.637213
H 1.46498 -1.39337 -1.02088

15
C -1.77755 -0.579607 0.22106
C -1.62428 0.917932 0.256277
C -0.53158 0.0622471 -0.304439
N 0.648798 -0.0776188 0.507013
C 1.83848 0.557093 -0.0305966
C 1.68626 -0.917314 -0.0637913
H -2.47485 -1.01205 -0.491528
H -1.68934 -1.12528 1.15648
H -1.43184 1.39037 1.21561
H -2.21616 1.51522 -0.43215
H -0.368258 0.0709645 -1.38239
H 1.72339 1.10918 -0.965016
H 2.507 1.00992 0.695984
H 2.24484 -1.52904 0.638826
H 1.46509 -1.39201 -1.02134

15
C -1.77838 -0.578791 0.222002
C -1.62525 0.917269 0.257189
C -0.530554 0.0620927 -0.30296
N 0.649312 -0.0776809 0.506873
C 1.83957 0.556802 -0.0318022
C 1.6874 -0.917202 -0.0649964
H -2.47303 -1.01207 -0.49092
H -1.68787 -1.12501 1.15614
H -1.43044 1.38984 1.21524
H -2.21439 1.51487 -0.431534
H -0.370691 0.0712276 -1.38436
H 1.72463 1.10579 -0.967011
H 2.50281 1.01424 0.698344
H 2.23989 -1.53252 0.640985
H 1.46698 -1.38885 -1.02319

15
C -1.77765 -0.577685 0.223132
C -1.62475 0.915995 0.258247
C -0.529545 0.0620184 -0.304699
N 0.650413 -0.0778041 0.506614
C 1.84044 0.556992 -0.030541
C 1.68822 -0.917621 -0.0637549
H -2.47159 -1.01237 -0.490551
H -1.68625 -1.12487 1.15634
H -1.42887 1.38937 1.21542
H -2.21293 1.51487 -0.431135
H -0.374265 0.0715558 -1.38444
H 1.72655 1.10208 -0.970367
H 2.49718 1.0189 0.699853
H 2.23346 -1.53598 0.642277
H 1.46961 -1.38546 -1.02639

15
C -1.77417 -0.579448 0.22259
C -1.62096 0.917052 0.257765
C -0.53001 0.0620788 -0.305471
N 0.648381 -0.0775371 0.503389
C 1.83882 0.557727 -0.0295426
C 1.6865 -0.918049 -0.062802
H -2.47033 -1.01265 -0.489477
H -1.68397 -1.12506 1.15797
H -1.42657 1.38904 1.21704
H -2.21165 1.51487 -0.430035
H -0.378812 0.0719723 -1.38476
H 1.73063 1.09606 -0.973559
H 2.49117 1.02618 0.702078
H 2.22616 -1.54197 0.644152
H 1.47483 -1.38026 -1.02935

15
C -1.77398 -0.579585 0.223291
C -1.62077 0.917126 0.25846
C -0.53042 0.0621266 -0.305909
N 0.647346 -0.0774116 0.502599
C 1.83854 0.557373 -0.0287534
C 1.6863 -0.917683 -0.0619955
H -2.47061 -1.01278 -0.489276
H -1.68326 -1.12484 1.15805
H -1.4259 1.38867 1.2171
H -2.21188 1.51504 -0.429826
H -0.378997 0.0720255 -1.38647
H 1.73173 1.09509 -0.973682
H 2.49046 1.0268 0.701913
H 2.22534 -1.54242 0.643948
H 1.47611 -1.37953 -1.02944

15
C -1.77461 -0.579149 0.223465
C -1.62146 0.916813 0.258627
C -0.531273 0.0622686 -0.308377
N 0.64617 -0.077274 0.501926
C 1.83789 0.557406 -0.0281586
C 1.68566 -0.917605 -0.0614126
H -2.47106 -1.01281 -0.4883
H -1.68179 -1.12483 1.15869
H -1.42444 1.38832 1.21773
H -2.21231 1.51512 -0.42887
H -0.379283 0.0721043 -1.38895
H 1.73378 1.09339 -0.973241
H 2.48973 1.02753 0.70191
H 2.22449 -1.54298 0.643899
H 1.47849 -1.3783 -1.02894

15
C -1.77584 -0.578637 0.223104
C -1.62273 0.916535 0.258125
C -0.532991 0.0625183 -0.311605
N 0.6444 -0.0770551 0.49894
C 1.83812 0.557779 -0.0269509
C 1.68583 -0.918042 -0.0602107
H -2.47467 -1.01376 -0.484637
H -1.67774 -1.12416 1.15728
H -1.4205 1.38693 1.2163
H -2.2156 1.51661 -0.425169
H -0.381218 0.0723638 -1.39212
H 1.73807 1.092 -0.974744
H 2.48869 1.02914 0.705126
H 2.22315 -1.54449 0.647008
H 1.48303 -1.37773 -1.03045

15
C -1.776 -0.578714 0.221718
C -1.62272 0.916847 0.257313
C -0.533732 0.0625549 -0.314205
N 0.643975 -0.0769339 0.496735
C 1.83904 0.557235 -0.0266733
C 1.68681 -0.917738 -0.0601237
H -2.47956 -1.0143 -0.48177
H -1.67405 -1.12355 1.15658
H -1.41699 1.38547 1.2152
H -2.22031 1.51805 -0.422402
H -0.383732 0.0726599 -1.3948
H 1.74166 1.09127 -0.974176
H 2.48701 1.02767 0.707214
H 2.22184 -1.54282 0.649196
H 1.48677 -1.3777 -1.02981

15
C -1.77582 -0.578808 0.222049
C -1.62276 0.916781 0.256887
C -0.533791 0.0626272 -0.314592
N 0.643905 -0.0769756 0.496309
C 1.83906 0.55724 -0.0268366
C 1.68691 -0.917718 -0.0600401
H -2.48006 -1.01427 -0.481519
H -1.67365 -1.12342 1.15634
H -1.41654 1.38545 1.21535
H -2.22065 1.51801 -0.421968
H -0.384131 0.0727245 -1.39523
H 1.74215 1.09134 -0.974044
H 2.48666 1.02745 0.707594
H 2.22149 -1.54251 0.649516
H 1.48722 -1.37792 -1.02981

15
C -1.77534 -0.578881 0.2225
C -1.62165 0.916098 0.257474
C -0.534088 0.062886 -0.316916
N 0.643289 -0.0769214 0.493174
C 1.83895 0.55759 -0.0273027
C 1.68663 -0.917869 -0.060555
H -2.4804 -1.0131 -0.479685
H -1.67185 -1.12373 1.15635
H -1.4147 1.38554 1.21547
H -2.2215 1.51718 -0.420502
H -0.386548 0.0729731 -1.39802
H 1.74477 1.09318 -0.973958
H 2.48388 1.02636 0.709911
H 2.21911 -1.54105 0.651957
H 1.48944 -1.38026 -1.0299

15
C -1.77486 -0.578585 0.222595
C -1.62177 0.916418 0.257702
C -0.534275 0.0626967 -0.317523
N 0.643069 -0.0768185 0.492379
C 1.83887 0.55754 -0.0274361
C 1.68665 -0.91797 -0.0607984
H -2.48071 -1.01293 -0.479454
H -1.67136 -1.12405 1.15651
H -1.41419 1.38556 1.21534
H -2.22154 1.51679 -0.420008
H -0.387222 0.0730504 -1.39874
H 1.74545 1.09397 -0.973906
H 2.48331 1.02602 0.710568
H 2.2186 -1.54058 0.652576
H 1.48998 -1.38111 -1.0298

15
C -1.7751 -0.578733 0.222616
C -1.6219 0.916541 0.257749
C -0.534539 0.0627323 -0.31756
N 0.642879 -0.0767971 0.492339
C 1.8389 0.557407 -0.0276526
C 1.6868 -0.917855 -0.0608702
H -2.4808 -1.0129 -0.479554
H -1.67112 -1.12437 1.15644
H -1.41388 1.38584 1.21532
H -2.22169 1.51684 -0.420175
H -0.387597 0.0730857 -1.39882
H 1.74559 1.0947 -0.973589
H 2.4836 1.02571 0.710696
H 2.2189 -1.5403 0.65264
H 1.48996 -1.3819 -1.02958

15
C -1.77514 -0.578749 0.222683
C -1.62195 0.916547 0.257735
C -0.534637 0.0627443 -0.317539
N 0.642833 -0.0768013 0.492305
C 1.83897 0.557415 -0.0275327
C 1.68674 -0.917815 -0.0609705
H -2.48079 -1.01288 -0.479631
H -1.67098 -1.12448 1.15637
H -1.41371 1.38594 1.21529
H -2.22167 1.51681 -0.420246
H -0.387907 0.0731145 -1.39881
H 1.74565 1.09485 -0.97355
H 2.4836 1.02563 0.710662
H 2.21899 -1.54029 0.6527
H 1.49002 -1.38204 -1.02946

15
C -1.77517 -0.578671 0.222748
C -1.62199 0.916513 0.257832
C -0.534799 0.0627719 -0.317487
N 0.642784 -0.076816 0.49218
C 1.83888 0.557495 -0.027468
C 1.68668 -0.917871 -0.0607934
H -2.48064 -1.01281 -0.479766
H -1.67063 -1.12472 1.15624
H -1.41333 1.38608 1.21513
H -2.22153 1.51672 -0.420392
H -0.388796 0.0731918 -1.39879
H 1.74584 1.09481 -0.973439
H 2.48355 1.02563 0.710718
H 2.21893 -1.54027 0.652695
H 1.49021 -1.38206 -1.02941

15
C -1.77515 -0.578698 0.222777
C -1.62196 0.916509 0.257851
C -0.534791 0.062759 -0.317546
N 0.642764 -0.0767787 0.492166
C 1.83885 0.557457 -0.0274286
C 1.68671 -0.917916 -0.0607976
H -2.48062 -1.01283 -0.479732
H -1.6706 -1.12479 1.1562
H -1.41327 1.38617 1.2151
H -2.22151 1.51674 -0.420367
H -0.388964 0.0732081 -1.39886
H 1.74587 1.09475 -0.973468
H 2.48353 1.02567 0.710781
H 2.21889 -1.54027 0.652729
H 1.49026 -1.38198 -1.0294

15
C -1.77512 -0.578713 0.222792
C -1.62193 0.916526 0.257875
C -0.534778 0.0627492 -0.317605
N 0.642743 -0.0767962 0.492148
C 1.83888 0.557477 -0.0274248
C 1.6867 -0.91788 -0.0607685
H -2.48062 -1.01285 -0.479693
H -1.6706 -1.1249 1.15616
H -1.41325 1.38628 1.21506
H -2.22149 1.51676 -0.420324
H -0.389098 0.0732188 -1.39894
H 1.74587 1.09468 -0.973449
H 2.48352 1.02565 0.710819
H 2.21891 -1.54028 0.652787
H 1.49027 -1.38193 -1.02943

15
C -1.77512 -0.57871 0.222789
C -1.62193 0.916525 0.257867
C -0.534783 0.0627594 -0.317587
N 0.642753 -0.0768089 0.49214
C 1.83889 0.557465 -0.0274167
C 1.68672 -0.917882 -0.0607657
H -2.48062 -1.01285 -0.47969
H -1.67065 -1.12496 1.15614
H -1.41327 1.38635 1.21503
H -2.22149 1.51676 -0.42032
H -0.389082 0.0732128 -1.39894
H 1.74581 1.09471 -0.973432
H 2.48358 1.02559 0.710813
H 2.21898 -1.54023 0.652774
H 1.49022 -1.38193 -1.0294
